   Input file: Water_column_t_0.pqi
  Output file: Output/Water_column/Water_column_t_0.txt
Database file: /Users/aamsler/Desktop/phreeqc-3.5.0-14000/database/core10.dat

------------------
Reading data base.
------------------

	LLNL_AQUEOUS_MODEL_PARAMETERS
	SOLUTION_MASTER_SPECIES
	SOLUTION_SPECIES
	PHASES
------------------------------------
Reading input data for simulation 1.
------------------------------------

	    KNOBS
	    iterations     5000
	    tolerance      1e-12
	    step_size      100
	    pe_step_size   10
	    diagonal_scale true
	    END
------------------
End of simulation.
------------------

------------------------------------
Reading input data for simulation 2.
------------------------------------

	    SOLUTION 0 Interface with the atmosphere
	    temp  0.01  # celcius
	    press 0.3332891757708406 # atm
	    pH 10 charge
	    pe -8.985
	    water 100 # kg
	    units		mol/kgw
	    C(4)	  0.024334888015550976
	    C(-4)	  1.5793003008387623e-05
	    N(-3)     0.31985110032129616
	    SOLUTION 1 Box 0-1
	    temp  0.01  # celcius
	    press 0.14391655847489138 # atm
	    pH 7 
	    water 100 # kg
	    units		mol/kgw
	    SOLUTION 2 Box 1-2
	    temp  0.01  # celcius
	    press 0.43174967542467424 # atm
	    pH 7 
	    water 100 # kg
	    units		mol/kgw
	    SOLUTION 3 Box 2-3
	    press 0.7195827923744569 # atm
	    pH 7 
	    water 100 # kg
	    units		mol/kgw
	    SOLUTION 4 Box 3-4
	    press 1.0074159093242396 # atm
	    pH 7 
	    water 100 # kg
	    units		mol/kgw
	    SOLUTION 5 Box 4-5
	    temp  0.01  # celcius
	    press 1.2952490262740224 # atm  
	    pH 7 
	    water 100 # kg
	    units		mol/kgw
	    SOLUTION 6 Box 5-6
	    temp  0.01  # celcius
	    press 1.5830821432238051 # atm
	    pH 7 
	    water 100 # kg
	    units		mol/kgw
	    SOLUTION 7 Box 6-7
	    temp  0.01  # celcius
	    press 1.870915260173588 # atm
	    pH 7 
	    water 100 # kg
	    units		mol/kgw
	    SOLUTION 8 Box 7-8
	    temp  0.01  # celcius
	    press 2.158748377123371 # atm
	    pH 7 
	    water 100 # kg
	    units		mol/kgw
	    SOLUTION 9 Box 8-9
	    temp  0.01  # celcius
	    press 2.4465814940731536 # atm
	    pH 7 
	    water 100 # kg
	    units		mol/kgw
	    SOLUTION 10 Box 9-10
	    temp  0.01  # celcius
	    press 2.7344146110229364
	    pH 7 
	    water 100 # kg
	    units		mol/kgw
	    SOLUTION 11  Interface with the rocky mantle
	    temp  0.01  # celcius
	    press 8.634993508493483 # atm
	    pH 7 charge
	    water 1.0
	    units		mol/kgw
	    USE SOLUTION 11
	    EQUILIBRIUM_PHASES 1 CM chondrite
		Antigorite		0.0	0.063	# Mg48Si34O85(OH)62 /16
		Cronstedtite-7A		0.0	0.63	# Fe2Fe2SiO5(OH)4
		Nontronite-K		0.0	0.0315	# K.33Fe2Al.33Si3.67H2O12
		Nontronite-Na		0.0	0.3	# Na.33Fe2Al.33Si3.67H2O12
		Clinochlore-14A		0.0	0.15 	# Mg5Al2Si3O10(OH)8
		Hydroxyapatite		0.0	0.010	# Ca5(OH)(PO4)3
		Calcite			0.0	0.168	# CaCO3
		Halite			0.0	0.0045	# NaCl
		Magnetite		0.0	0.06	# Fe3O4
		Wollastonite		0.0	0.105	# CaSiO3
		Na2SiO3			0.0	0.03	# Na2SiO3
		Forsterite		0.0	0.325	# Mg2SiO4
		Tephroite		0.0	0.016	# Mn2SiO4, Allen & Mason 1973, proxy for substitution in olivine and sulfide
		Chromite		0.0	0.031	# FeCr2O4, Metzler+1992
		Mo			0.0	1.5e-5  # Mo
		Brucite			0.0	0.375 	# Mg(OH)2, 5*0.075
		Troilite		0.0	0.72	# FeS, 6*0.075+0.270
		Millerite		0.0	0.2	# NiS, pentlandite proxy
		Covellite		0.0	0.0018	# CuS
		Sphalerite		0.0	0.0029	# ZnS
		Rutile			0.0	0.012	# TiO2
		KerogenC128		0.0	0.0092	# C128H68O7
		Pyridine		0.0	0.052	# C5H5N
		[(6)(CB)(CB)S]		0.0	0.105	# Aromatic S
		[(aro)-O-(aro)]		0.0	0.205	# Aromatic O
		B			0.0	5.5e-5	# B
		Co			0.0	0.0097	# Co
		Eu			0.0	4.95e-7	# EuO
		Gd			0.0	1.74e-6	# Gd
		Eucryptite		0.0	1.95e-4	# LiAlSiO4
		Sc			0.0	1.8e-4	# Sc
		Sm			0.0	1.32e-6	# Sm
		Thorianite		0.0	1.7e-7	# ThO2
		Uraninite		0.0	4.6e-8	# UO2
	  Afwillite   			0	0	# Ca3Si2O4(OH)6
	  Akermanite   			0	0	# Ca2MgSi2O7
	  Al           			0	0	# Al
	  Al2(SO4)3    			0	0	# Al2(SO4)3
	  Alabandite   			0	0	# MnS
	  Albite        		0	0	# NaAlSi3O8
	  Albite_high  			0	0	# NaAlSi3O8
	  Albite_low 			0	0	# NaAlSi3O8
	  Alum-K       			0	0	# KAl(SO4)2:12H2O
	  Alunite       		0	0	# KAl3(OH)6(SO4)2
	  Amesite-14A  			0	0	# Mg4Al4Si2O10(OH)8
	  Analcime    			0	0	# Na.96Al.96Si2.04O6:H2O
	  Andalusite   			0	0	# Al2SiO5
	  Andradite  			0	0	# Ca3Fe2(SiO4)3
	  Anhydrite  			0	0	# CaSO4
	  Annite          		0	0	# KFe3AlSi3O10(OH)2
	  Anorthite       		0	0	# CaAl2(SiO4)2
	  Anthophyllite   		0	0	# Mg7Si8O22(OH)2
	  Aragonite       		0	0	# CaCO3
	  Arcanite       		0	0	# K2SO4
	  Artinite        		0	0	# Mg2CO3(OH)2:3H2O
	  Atacamite       		0	0	# Cu4Cl2(OH)6
	  Azurite        		0	0	# Cu3(CO3)2(OH)2
	  B2O3           		0	0	# B2O3
	  Bassanite      		0	0	# CaSO4:0.5H2O
	  Bassetite      		0	0	# Fe(UO2)2(PO4)2
	  Beidellite-Ca   		0	0	# Ca.175Al2.35Si3.65O10(OH)2
	  Beidellite-Fe   		0	0	# Fe.175Al2.35Si3.65O10(OH)2
	  Beidellite-K   		0	0	# K.35Al2.35Si3.65O10(OH)2
	  Beidellite-Mg   		0	0	# Mg.175Al2.35Si3.65O10(OH)2
	  Beidellite-Na  		0	0	# Na.35Al2.35Si3.65O10(OH)2
	  Berlinite       		0	0	# AlPO4
	  Bieberite       		0	0	# CoSO4:7H2O
	  Bixbyite        		0	0	# Mn2O3
	  Boehmite         		0	0	# AlO2H
	  Borax          		0	0	# Na2(B4O5(OH)4):8H2O
	  Boric_acid     		0	0	# B(OH)3
	  Bornite          		0	0	# Cu5FeS4
	  Brezinaite      		0	0	# Cr3S4
	  Brochantite   		0	0	# Cu4(SO4)(OH)6
	  Bunsenite       		0	0	# NiO
	  C               		0	0	# C
	  Ca              		0	0	# Ca
	  Ca-Al_Pyroxene  		0	0	# CaAl2SiO6
	  Ca3Al2O6       		0	0	# Ca3Al2O6
	  Ca4Al2Fe2O10   		0	0	# Ca4Al2Fe2O10
	  CaAl2O4         		0	0	# CaAl2O4
	  CaAl4O7         		0	0	# CaAl4O7
	  Cattierite     		0	0	# CoS2
	  CaUO4           		0	0	# CaUO4
	  Celadonite       		0	0	# KMgAlSi4O10(OH)2
	  Chalcanthite    		0	0	# CuSO4:5H2O
	  Chalcedony      		0	0	# SiO2
	  Chalcocite       		0	0	# Cu2S
	  Chalcocyanite   		0	0	# CuSO4
	  Chalcopyrite     		0	0	# CuFeS2
	  Chamosite         		0	0	# Fe5Al2Si3O10(OH)8
	  Chloromagnesite 		0	0	# MgCl2
	  Chrysotile       		0	0	# Mg3Si2O5(OH)4
	  Clinochlore-7A   		0	0	# Mg5Al2Si3O10(OH)8
	  Clinoptilolite-Ca 		0	0	# Ca1.7335Al3.45Fe.017Si14.533O36:10.922H2O
	  Clinoptilolite-K 		0	0	# K3.467Al3.45Fe.017Si14.533O36:10.922H2O
	  Clinoptilolite-Na 		0	0	# Na3.467Al3.45Fe.017Si14.533O36:10.922H2O
	  Clinozoisite     		0	0	# Ca2Al3Si3O12(OH)
	  Co2SiO4         		0	0	# Co2SiO4
	  CoCl2           		0	0	# CoCl2
	  CoCl2:2H2O      		0	0	# CoCl2:2H2O
	  CoCl2:6H2O      		0	0	# CoCl2:6H2O
	  Coesite          		0	0	# SiO2
	  CoFe2O4          		0	0	# CoFe2O4
	  Coffinite       		0	0	# USiO4
	  CoO              		0	0	# CoO
	  Cordierite_anhyd		0	0	# Mg2Al4Si5O18
	  Cordierite_hydr 		0	0	# Mg2Al4Si5O18:H2O
	  Corundum         		0	0	# Al2O3
	  CoS              		0	0	# CoS
	  CoSO4           		0	0	# CoSO4
	  CoSO4:6H2O      		0	0	# CoSO4:6H2O
	  CoSO4:H2O       		0	0	# CoSO4:H2O
	  Cr              		0	0	# Cr
	  CrCl3           		0	0	# CrCl3
	  Cristobalite(alpha)  		0	0	# SiO2
	  Cristobalite(beta)  		0	0	# SiO2
	  CrO2            		0	0	# CrO2
	  CrO3            		0	0	# CrO3
	  CrS            		0	0	# CrS
	  Cu              		0	0	# Cu
	  CuCl2           		0	0	# CuCl2
	  CuCr2O4         		0	0	# CuCr2O4
	  Cuprite         		0	0	# Cu2O
	  Daphnite-14A    		0	0	# Fe5AlAlSi3O10(OH)8
	  Daphnite-7A      		0	0	# Fe5AlAlSi3O10(OH)8
	  Dawsonite       		0	0	# NaAlCO3(OH)2
	  Delafossite     		0	0	# CuFeO2
	  Diaspore         		0	0	# AlHO2
	  Dicalcium_silicate  		0	0	# Ca2SiO4
	  Diopside         		0	0	# CaMgSi2O6
	  Dioptase        		0	0	# CuSiO2(OH)2
	  Dolomite        		0	0	# CaMg(CO3)2
	  Dolomite-dis    		0	0	# CaMg(CO3)2
	  Dolomite-ord    		0	0	# CaMg(CO3)2
	  Enstatite        		0	0	# MgSiO3
	  Epidote          		0	0	# Ca2FeAl2Si3O12OH
	  Epidote-ord      		0	0	# FeCa2Al2(OH)(SiO4)3
	  Eskolaite       		0	0	# Cr2O3
	  Ettringite     		0	0	# Ca6Al2(SO4)3(OH)12:26H2O
	  Eu(OH)3          		0	0	# Eu(OH)3
	  Eu2(SO4)3:8H2O 		0	0	# Eu2(SO4)3:8H2O
	  Eu2O3(cubic)   		0	0	# Eu2O3
	  Eu2O3(monoclinic) 		0	0	# Eu2O3
	  Eu3O4          		0	0	# Eu3O4
	  EuCl2           		0	0	# EuCl2
	  EuCl3           		0	0	# EuCl3
	  EuCl3:6H2O      		0	0	# EuCl3:6H2O
	  EuOCl          		0	0	# EuOCl
	  EuS             		0	0	# EuS
	  EuSO4           		0	0	# EuSO4
	  Fayalite       		0	0	# Fe2SiO4
	  Fe               		0	0	# Fe
	  Fe(OH)2         		0	0	# Fe(OH)2
	  Fe(OH)3         		0	0	# Fe(OH)3
	  Fe2(SO4)3      		0	0	# Fe2(SO4)3
	  FeO              		0	0	# FeO
	  Ferrite-Ca      		0	0	# CaFe2O4
	  Ferrite-Cu      		0	0	# CuFe2O4
	  Ferrite-Dicalcium 		0	0	# Ca2Fe2O5
	  Ferrite-Mg       		0	0	# MgFe2O4
	  Ferrite-Zn       		0	0	# ZnFe2O4
	  Ferrosilite      		0	0	# FeSiO3
	  FeSO4          		0	0	# FeSO4
	  Foshagite        		0	0	# Ca4Si3O9(OH)2:0.5H2O
	  Gehlenite       		0	0	# Ca2Al2SiO7
	  Gibbsite         		0	0	# Al(OH)3
	  Goethite         		0	0	# FeOOH
	  Greenalite        		0	0	# Fe3Si2O5(OH)4
	  Grossular       		0	0	# Ca3Al2(SiO4)3
	  Gypsum          		0	0	# CaSO4:2H2O
	  Gyrolite        		0	0	# Ca2Si3O7(OH)2:1.5H2O
	  Hatrurite       		0	0	# Ca3SiO5
	  Hausmannite     		0	0	# Mn3O4
	  Heazlewoodite    		0	0	# Ni3S2
	  Hedenbergite     		0	0	# CaFe(SiO3)2
	  Hematite         		0	0	# Fe2O3
	  Hercynite        		0	0	# FeAl2O4
	  Hillebrandite    		0	0	# Ca2SiO3(OH)2:0.17H2O
	  Huntite         		0	0	# CaMg3(CO3)4
	  Hydromagnesite  		0	0	# Mg5(CO3)4(OH)2:4H2O
	  Hydrophilite    		0	0	# CaCl2
	  Ice              		0	0	# H2O
	  Ilmenite       		0	0	# FeTiO3
	  Jadeite         		0	0	# NaAl(SiO3)2
	  Jarosite        		0	0	# KFe3(SO4)2(OH)6
	  K              		0	0	# K
	  K-Feldspar      		0	0	# KAlSi3O8
	  K2O             		0	0	# K2O
	  KAl(SO4)2       		0	0	# KAl(SO4)2
	  Kalsilite        		0	0	# KAlSiO4
	  Kaolinite       		0	0	# Al2Si2O5(OH)4
	  KerogenC292    		0	0	# C292H288O12
	  KerogenC515    		0	0	# C515H596O72
	  Kyanite          		0	0	# Al2SiO5
	  Larnite          		0	0	# Ca2SiO4
	  Laumontite      		0	0	# CaAl2Si4O12:4H2O
	  Lawrencite			0	0	# FeCl2
	  Lawsonite			0	0	# CaAl2Si2O7(OH)2:H2O
	  Li				0	0	# Li
	  Lime				0	0	# CaO
	  Linnaeite			0	0	# Co3S4
	  Lizardite			0	0	# Mg3Si2O5(OH)4
	  Lopezite			0	0	# K2Cr2O7
	  Magnesiochromite		0	0	# MgCr2O4
	  Magnesite			0	0	# MgCO3
	  Malachite			0	0	# Cu2CO3(OH)2
	  Manganosite			0	0	# MnO
	  Margarite			0	0	# CaAl4Si2O10(OH)2
	  Maximum_Microcline		0	0	# KAlSi3O8
	  Mayenite			0	0	# Ca12Al14O33
	  Melanterite			0	0	# FeSO4:7H2O
	  Merwinite			0	0	# MgCa3(SiO4)2
	  Mesolite			0	0	# Na.676Ca.657Al1.99Si3.01O10:2.647H2O
	  Mg				0	0	# Mg
	  MgOHCl			0	0	# MgOHCl
	  MgSO4				0	0	# MgSO4
	  Minnesotaite			0	0	# Fe3Si4O10(OH)2
	  Mirabilite			0	0	# Na2SO4:10H2O
	  Mn				0	0	# Mn
	  Mn(OH)2(am)			0	0	# Mn(OH)2
	  MnCl2:2H2O			0	0	# MnCl2:2H2O
	  MnCl2:4H2O			0	0	# MnCl2:4H2O
	  MnCl2:H2O			0	0	# MnCl2:H2O
	  MnSO4				0	0	# MnSO4
	  Molysite			0	0	# FeCl3
	  Monohydrocalcite		0	0	# CaCO3:H2O
	  Monticellite			0	0	# CaMgSiO4
	  Montmor-Ca			0	0	# Ca.175Mg.35Al1.65Si4O10(OH)2
	  Montmor-K			0	0	# K.35Mg.35Al1.65Si4O10(OH)2
	  Montmor-Mg			0	0	# Mg.525Al1.65Si4O10(OH)2
	  Montmor-Na			0	0	# Na.35Mg.35Al1.65Si4O10(OH)2
	  Mordenite			0	0	# Ca.2895Na.361Al.94Si5.06O12:3.468H2O
	  Morenosite			0	0	# NiSO4:7H2O
	  Muscovite			0	0	# KAl3Si3O10(OH)2
	  Na				0	0	# Na
	  Na2CO3			0	0	# Na2CO3
	  Na2CO3:7H2O			0	0	# Na2CO3:7H2O
	  Na2Cr2O7			0	0	# Na2Cr2O7
	  Na2CrO4			0	0	# Na2CrO4
	  Na2O				0	0	# Na2O
	  Na2U2O7			0	0	# Na2U2O7
	  NaFeO2			0	0	# NaFeO2
	  Nahcolite			0	0	# NaHCO3
	  Nantokite			0	0	# CuCl
	  Natrolite			0	0	# Na2Al2Si3O10:2H2O
	  Natron			0	0	# Na2CO3:10H2O
	  Natrosilite			0	0	# Na2Si2O5
	  NaUO3				0	0	# NaUO3
	  Nepheline			0	0	# NaAlSiO4
	  Nesquehonite			0	0	# MgCO3:3H2O
	  NH4-feldspar			0	0	# NH4AlSi3O8
	  NH4-muscovite			0	0	# NH4Al3Si3O10(OH)2
	  NH4Cl				0	0	# NH4Cl
	  NH4HCO3			0	0	# NH4HCO3
	  Ni				0	0	# Ni
	  Ni(OH)2			0	0	# Ni(OH)2
	  Ni2SiO4			0	0	# Ni2SiO4
	  Nickelbischofite		0	0	# NiCl2:6H2O
	  NiCl2				0	0	# NiCl2
	  NiCl2:2H2O			0	0	# NiCl2:2H2O
	  Ningyoite			0	0	# CaUP2O8:2H2O
	  NiSO4				0	0	# NiSO4
	  NiSO4:6H2O(alpha)		0	0	# NiSO4:6H2O
	  Niter				0	0	# KNO3
	  Nontronite-Ca			0	0	# Ca.175Fe2Al.35Si3.65H2O12
	  Nontronite-Mg			0	0	# Mg.175Fe2Al.35Si3.65H2O12
	  Okenite			0	0	# CaSi2O4(OH)2:H2O
	  P				0	0	# P
	  Paragonite			0	0	# NaAl3Si3O10(OH)2
	  Pargasite			0	0	# NaCa2Al3Mg4Si6O22(OH)2
	  Periclase			0	0	# MgO
	  Petalite			0	0	# LiAlSi4O10
	  Phlogopite			0	0	# KAlMg3Si3O10(OH)2
	  Polydymite			0	0	# Ni3S4
	  Portlandite			0	0	# Ca(OH)2
	  Prehnite			0	0	# Ca2Al2Si3O10(OH)2
	  Pseudowollastonite		0	0	# CaSiO3
	  Pyrite			0	0	# FeS2
	  Pyrolusite			0	0	# MnO2
	  Pyrophyllite			0	0	# Al2Si4O10(OH)2
	  Pyrrhotite			0	0	# FeS
	  Quartz			0	0	# SiO2
	  Rankinite			0	0	# Ca3Si2O7
	  Rhodochrosite			0	0	# MnCO3
	  Rhodonite			0	0	# MnSiO3
	  Ripidolite			0	0	# Mg3Fe2Al2Si3O10(OH)8
	  Rutherfordine			0	0	# UO2CO3
	  S				0	0	# S
	  Saleeite			0	0	# Mg(UO2)2(PO4)2
	  Sanidine_high			0	0	# KAlSi3O8
	  Saponite-Fe-Ca		0	0	# Ca.175Fe3Al.35Si3.65O10(OH)2
	  Saponite-Fe-K			0	0	# K.35Fe3Al.35Si3.65O10(OH)2
	  Saponite-Fe-Mg		0	0	# Mg.175Fe3Al.35Si3.65O10(OH)2
	  Saponite-Fe-Na		0	0	# Na.35Fe3Al.35Si3.65O10(OH)2
	  Saponite-Mg-Ca		0	0	# Ca.175Mg3Al.35Si3.65O10(OH)2
	  Saponite-Mg-Fe		0	0	# Fe.175Mg3Al.35Si3.65O10(OH)2
	  Saponite-Mg-K			0	0	# K.35Mg3Al.35Si3.65O10(OH)2
	  Saponite-Mg-Mg		0	0	# Mg3.175Al.35Si3.65O10(OH)2
	  Saponite-Mg-Na		0	0	# Na.35Mg3Al.35Si3.65O10(OH)2
	  Scacchite			0	0	# MnCl2
	  Schoepite			0	0	# UO3:2H2O
	  Scolecite			0	0	# CaAl2Si3O10:3H2O
	  Sepiolite			0	0	# Mg4Si6O15(OH)2:6H2O
	  Si				0	0	# Si
	  Siderite			0	0	# FeCO3
	  Sillimanite			0	0	# Al2SiO5
	  SiO2(am)			0	0	# SiO2
	  Smectite-high-Fe-Mg		0	0	# Ca.025Na.1K.2Fe.5Fe.2Mg1.15Al1.25Si3.5H2O12
	  Smectite-low-Fe-Mg		0	0	# Ca.02Na.15K.2Fe.29Fe.16Mg.9Al1.25Si3.75H2O12
	  Smithsonite			0	0	# ZnCO3
	  Sphaerocobaltite		0	0	# CoCO3
	  Spinel			0	0	# Al2MgO4
	  Spinel-Co			0	0	# Co3O4
	  Spodumene			0	0	# LiAlSi2O6
	  Stilbite			0	0	# Ca1.019Na.136K.006Al2.18Si6.82O18:7.33H2O
	  Strengite			0	0	# FePO4:2H2O
	  Sylvite			0	0	# KCl
	  Talc				0	0	# Mg3Si4O10(OH)2
	  Tarapacaite			0	0	# K2CrO4
	  Tenorite			0	0	# CuO
	  Th				0	0	# Th
	  Th(NO3)4:5H2O			0	0	# Th(NO3)4:5H2O
	  Th(SO4)2			0	0	# Th(SO4)2
	  Th2S3				0	0	# Th2S3
	  Th7S12			0	0	# Th7S12
	  ThCl4				0	0	# ThCl4
	  Thenardite			0	0	# Na2SO4
	  Thermonatrite			0	0	# Na2CO3:H2O
	  ThS2				0	0	# ThS2
	  Ti				0	0	# Ti
	  Ti2O3				0	0	# Ti2O3
	  Ti3O5				0	0	# Ti3O5
	  TiB2				0	0	# TiB2
	  TiC				0	0	# TiC
	  TiCl2				0	0	# TiCl2
	  TiCl3				0	0	# TiCl3
	  TiN				0	0	# TiN
	  Titanite			0	0	# CaTiSiO5
	  Tobermorite-11A		0	0	# Ca5Si6H11O22.5
	  Tremolite			0	0	# Ca2Mg5Si8O22(OH)2
	  Trevorite			0	0	# NiFe2O4
	  Tridymite			0	0	# SiO2
	  U				0	0	# U
	  U2O2Cl5			0	0	# U2O2Cl5
	  U3S5				0	0	# U3S5
	  UC				0	0	# UC
	  UCl3				0	0	# UCl3
	  UCl4				0	0	# UCl4
	  UCl6				0	0	# UCl6
	  UH3(beta)			0	0	# UH3
	  UN				0	0	# UN
	  UO2(NO3)2			0	0	# UO2(NO3)2
	  UO2(NO3)2:6H2O		0	0	# UO2(NO3)2:6H2O
	  UO2(OH)2(beta)		0	0	# UO2(OH)2
	  UO2SO4			0	0	# UO2SO4
	  UO2SO4:3H2O			0	0	# UO2SO4:3H2O
	  UO3(beta)			0	0	# UO3
	  Vaesite			0	0	# NiS2
	  Wairakite			0	0	# CaAl2Si4O10(OH)4
	  Wurtzite			0	0	# ZnS
	  Wustite			0	0	# Fe.947O
	  Xonotlite			0	0	# Ca6Si6O17(OH)2
	  Zincite			0	0	# ZnO
	  Zn				0	0	# Zn
	  Zn(NO3)2:6H2O			0	0	# Zn(NO3)2:6H2O
	  Zn(OH)2(beta)			0	0	# Zn(OH)2
	  Zn(OH)2(epsilon)		0	0	# Zn(OH)2
	  Zn2SiO4			0	0	# Zn2SiO4
	  ZnCl2				0	0	# ZnCl2
	  ZnCr2O4			0	0	# ZnCr2O4
	  ZnSO4				0	0	# ZnSO4
	  ZnSO4:6H2O			0	0	# ZnSO4:6H2O
	  Zoisite			0	0	# Ca2Al3(SiO4)3OH
	  TRANSPORT                   
	   cells  10
	   shifts  10
	   flow_direction diffusion
	   bcond   constant  constant
	   length  508.40942354385044    # m
	   diffc  1e-9           # m^2/s
	   time_step 3155760000.0       # in seconds
	SELECTED_OUTPUT
WARNING: Cell-lengths were read for 1 cells. Last value is used till cell 10.
WARNING: No dispersivities were read; disp = 0 assumed.
		file		/Users/aamsler/Desktop/Rock_Ocean_Europa/Output/Water_column/Water_column_t_0.dat
		state 		false	
	    solution   true
		distance 	false
		time 		true
		step 		false
		temperature	false
		ionic_strength	false
		water		true
		percent_error	true
		totals 	Al B C Ca Cl Cu Fe K Li Mg Mn Mo N Na Ni P S Si B(3) C(-2) C(-3) C(-4) C(2) C(4) Cl(-1) Cl(1) Cl(3) Cl(5) Cl(7) Cu(1) Cu(2)  Fe(2) Fe(3) H(0) Mn(2) Mn(3) Mn(6) Mn(7) N(-3) N(0) N(3) N(5) O(0) P(5) S(-2) S(2) S(3) S(4) S(5) S(6) S(7) S(8)
		molalities 	OH-	H+	H2O	AlO2-	HAlO2	AlOH+2	Al+3	Al(CH3COO)2+	BO2-	B(OH)3	C2H4	C2H6	CH4	CO	CO3-2	HCOO-	CH3OH	HCO3-	NaHCO3	CaCO3	CH3COO-	NaCH3COO	HCOOH	CO2	MgCO3	C3H8	CH3CH2OH	CH2O	LiCH3COO	KCH3COO	CN-	CH3COOH	NH4CH3COO	CaCH3COO+	SCN-	CO(NH2)2	HCN	Ca+2	CaCl+	CaCl2	CaSO4	Cl-	NaCl	LiCl	KCl	MnCl+	HCl	MgCl+	FeCl+	ZnCl+	FeCl2	NiCl+	CoCl+	ZnCl2	ZnCl3-	ZnCl4-2	FeCl+2	ClO-	ClO2-	ClO3-	ClO4-   Cu+	Cu+2	FeOH+	Fe+2	FeOH+2	Fe+3	H2	K+	KSO4-	KHSO4	Li+	Mg+2	MgSO4	Mn+2	MnSO4	Mn+3	MnO4-2	MnO4-	MoO4-2	NH3	NH4+	N2	NO2-	HNO2	NO3-	HNO3	Na+	NaOH	NaHSiO3	Ni+2	O2	S2O6-2	S3O6-2	S4O6-2	S5O6-2	PO4-3	HPO4-2	P2O7-4	H2PO4-	HP2O7-3	H3PO4	H2P2O7-2	H3P2O7-	H4P2O7	HS-	H2S	S2-2	S3-2	S4-2	S5-2	S2O3-2	S2O4-2	SO3-2	HSO3-	SO2	S2O5-2	SO4-2	HSO4-	ZnSO4	S2O8-2	HSO5-
		equilibrium_phases   	[(6)(CB)(CB)S] [(aro)-O-(aro)] Afwillite Akermanite Al Al2(SO4)3 Alabandite Albite Albite_high Albite_low Alum-K Alunite Amesite-14A Analcime Andalusite Andradite Anhydrite Annite Anorthite Anthophyllite Antigorite Aragonite Arcanite Artinite Atacamite Azurite B B2O3 Bassanite Bassetite Beidellite-Ca Beidellite-Fe Beidellite-K Beidellite-Mg Beidellite-Na Berlinite Bieberite Bixbyite Boehmite Borax Boric_acid Bornite Brezinaite Brochantite Brucite Bunsenite C Ca Ca-Al_Pyroxene Ca3Al2O6 Ca4Al2Fe2O10 CaAl2O4 CaAl4O7 Calcite Cattierite CaUO4 Celadonite Chalcanthite Chalcedony Chalcocite Chalcocyanite Chalcopyrite Chamosite  Chloromagnesite Chromite Chrysotile Clinochlore-14A Clinochlore-7A Clinoptilolite-Ca Clinoptilolite-K Clinoptilolite-Na Clinozoisite Co Co2SiO4 CoCl2 CoCl2:2H2O CoCl2:6H2O Coesite CoFe2O4 Coffinite CoO Cordierite_anhyd Cordierite_hydr Corundum CoS CoSO4 CoSO4:6H2O CoSO4:H2O Covellite Cr CrCl3 Cristobalite(alpha) Cristobalite(beta) CrO2 CrO3 Cronstedtite-7A CrS Cu CuCl2 CuCr2O4 Cuprite Daphnite-14A Daphnite-7A Dawsonite Delafossite Diaspore Dicalcium_silicate Diopside Dioptase Dolomite Dolomite-dis Dolomite-ord Enstatite Epidote Epidote-ord Eskolaite Ettringite Eu Eu(OH)3 Eu2(SO4)3:8H2O Eu2O3(cubic) Eu2O3(monoclinic) Eu3O4 EuCl2 EuCl3 EuCl3:6H2O Eucryptite EuOCl EuS EuSO4 Fayalite Fe Fe(OH)2 Fe(OH)3 Fe2(SO4)3 FeO Ferrite-Ca Ferrite-Cu Ferrite-Dicalcium Ferrite-Mg Ferrite-Zn Ferrosilite FeSO4 Forsterite Foshagite Gd Gehlenite Gibbsite Goethite Greenalite Grossular Gypsum Gyrolite Halite Hatrurite Hausmannite Heazlewoodite Hedenbergite Hematite Hercynite Hillebrandite Huntite Hydromagnesite Hydrophilite Hydroxyapatite Ice Ilmenite Jadeite Jarosite K K-Feldspar K2O KAl(SO4)2 Kalsilite Kaolinite KerogenC128 KerogenC292 KerogenC515 Kyanite Larnite Laumontite Lawrencite Lawsonite Li Lime Linnaeite Lizardite Lopezite Magnesiochromite Magnesite Magnetite Malachite Manganosite Margarite Maximum_Microcline Mayenite Melanterite Merwinite Mesolite Mg MgOHCl MgSO4 Millerite Minnesotaite Mirabilite Mn Mn(OH)2(am) MnCl2:2H2O MnCl2:4H2O MnCl2:H2O MnSO4 Mo Molysite Monohydrocalcite Monticellite Montmor-Ca Montmor-K Montmor-Mg Montmor-Na Mordenite Morenosite Muscovite Na Na2CO3 Na2CO3:7H2O Na2Cr2O7 Na2CrO4 Na2O Na2SiO3 Na2U2O7 NaFeO2 Nahcolite Nantokite Natrolite Natron Natrosilite NaUO3 Nepheline Nesquehonite NH4-feldspar NH4-muscovite NH4Cl NH4HCO3 Ni Ni(OH)2 Ni2SiO4 Nickelbischofite NiCl2 NiCl2:2H2O Ningyoite NiSO4 NiSO4:6H2O(alpha) Niter Nontronite-Ca Nontronite-K Nontronite-Mg Nontronite-Na Okenite P Paragonite Pargasite Periclase Petalite Phlogopite Polydymite Portlandite Prehnite Pseudowollastonite Pyridine Pyrite Pyrolusite Pyrophyllite Pyrrhotite Quartz Rankinite Rhodochrosite Rhodonite Ripidolite Rutherfordine Rutile S Saleeite Sanidine_high Saponite-Fe-Ca Saponite-Fe-K Saponite-Fe-Mg Saponite-Fe-Na Saponite-Mg-Ca Saponite-Mg-Fe Saponite-Mg-K Saponite-Mg-Mg Saponite-Mg-Na Sc Scacchite Schoepite Scolecite Sepiolite Si Siderite Sillimanite SiO2(am) Sm Smectite-high-Fe-Mg Smectite-low-Fe-Mg Smithsonite Sphaerocobaltite Sphalerite Spinel Spinel-Co Spodumene Stilbite Strengite Sylvite Talc Tarapacaite Tenorite Tephroite Th Th(NO3)4:5H2O Th(SO4)2 Th2S3 Th7S12 ThCl4 Thenardite Thermonatrite Thorianite ThS2 Ti Ti2O3 Ti3O5 TiB2 TiC TiCl2 TiCl3 TiN Titanite Tobermorite-11A Tremolite Trevorite Tridymite Troilite U U2O2Cl5 U3S5 UC UCl3 UCl4 UCl6 UH3(beta) UN UO2(NO3)2 UO2(NO3)2:6H2O UO2(OH)2(beta) UO2SO4 UO2SO4:3H2O UO3(beta) Uraninite Vaesite Wairakite Wollastonite Wurtzite Wustite Xonotlite Zincite Zn Zn(NO3)2:6H2O Zn(OH)2(beta) Zn(OH)2(epsilon) Zn2SiO4 ZnCl2 ZnCr2O4 ZnSO4 ZnSO4:6H2O Zoisite
		gases 		C2H4(g) C2H6(g)	C3H8(g) CH4(g) CO(g) CO2(g) H2(g) H2O(g) H2S(g) N2(g) NH3(g) NO(g) NO2(g) O2(g) SO2(g)
	END
-------------------------------------------
Beginning of initial solution calculations.
-------------------------------------------

Initial solution 0.	Interface with the atmosphere

-----------------------------Solution composition------------------------------

	Elements           Molality       Moles

	C(-4)             1.579e-05   1.579e-03
	C(4)              2.433e-02   2.433e+00
	N(-3)             3.199e-01   3.199e+01

----------------------------Description of solution----------------------------

                                       pH  =  11.012      Charge balance
                                       pe  =  -8.985    
                          Density (g/cm³)  =   0.99928
                               Volume (L)  = 100.75670
                        Activity of water  =   0.994
                 Ionic strength (mol/kgw)  =   5.784e-02
                       Mass of water (kg)  =   1.000e+02
                 Total alkalinity (eq/kg)  =   3.199e-01
                       Total CO2 (mol/kg)  =   2.433e-02
                         Temperature (°C)  =   0.01
                           Pressure (atm)  =  0.33
                  Electrical balance (eq)  =   2.737e-14
 Percent error, 100*(Cat-|An|)/(Cat+|An|)  =   0.00
                               Iterations  =  12
                                  Total H  = 1.120609e+04
                                  Total O  = 5.559095e+03

---------------------------------Redox couples---------------------------------

	Redox couple             pe  Eh (volts)

	C(-4)/C(4)          -8.4057     -0.4556

----------------------------Distribution of species----------------------------

                                               Log       Log       Log    mole V
   Species          Molality    Activity  Molality  Activity     Gamma   cm³/mol

   OH-             1.495e-04   1.212e-04    -3.825    -3.917    -0.091     -5.96
   H+              1.135e-11   9.719e-12   -10.945   -11.012    -0.068      0.00
   H2O             5.553e+01   9.942e-01     1.744    -0.003     0.000     18.02
C(-4)         1.579e-05
   CH4             1.579e-05   1.579e-05    -4.802    -4.802     0.000     34.00
C(4)          2.433e-02
   CO3-2           1.793e-02   8.022e-03    -1.746    -2.096    -0.349     -4.61
   HCO3-           3.892e-03   3.176e-03    -2.410    -2.498    -0.088     21.94
   C3H8            8.323e-04   8.323e-04    -3.080    -3.080     0.000     60.81
   CH3COO-         8.085e-06   6.638e-06    -5.092    -5.178    -0.086     39.55
   HCOO-           4.278e-07   3.469e-07    -6.369    -6.460    -0.091     25.34
   NH4CH3COO       3.483e-07   3.483e-07    -6.458    -6.458     0.000     64.41
   CO2             1.126e-07   1.142e-07    -6.949    -6.942     0.006     30.19
   CO(NH2)2        3.116e-08   3.116e-08    -7.506    -7.506     0.000     43.85
   CH3COOH         3.801e-12   3.801e-12   -11.420   -11.420     0.000     49.00
   NH4(CH3COO)2-   3.423e-12   2.793e-12   -11.466   -11.554    -0.088    118.58
   CH3OH           8.501e-13   8.501e-13   -12.071   -12.071     0.000     38.08
   CH3CH2OH        6.119e-13   6.119e-13   -12.213   -12.213     0.000     54.99
   HCOOH           2.391e-14   2.391e-14   -13.621   -13.621     0.000     31.57
   CN-             1.968e-22   1.585e-22   -21.706   -21.800    -0.094     21.77
   CH2O            1.604e-23   1.604e-23   -22.795   -22.795     0.000     24.11
   HCN             1.508e-23   1.508e-23   -22.822   -22.822     0.000     42.10
H(0)          4.069e-08
   H2              2.034e-08   2.064e-08    -7.692    -7.685     0.006     22.65
N(-3)         3.199e-01
   NH3             2.799e-01   2.799e-01    -0.553    -0.553     0.000     23.65
   NH4+            3.991e-02   3.191e-02    -1.399    -1.496    -0.097     17.53
   NH4CH3COO       3.483e-07   3.483e-07    -6.458    -6.458     0.000     64.41
   CO(NH2)2        3.116e-08   3.116e-08    -7.506    -7.506     0.000     43.85
   NH4(CH3COO)2-   3.423e-12   2.793e-12   -11.466   -11.554    -0.088    118.58
   CN-             1.968e-22   1.585e-22   -21.706   -21.800    -0.094     21.77
   HCN             1.508e-23   1.508e-23   -22.822   -22.822     0.000     42.10
O(0)         -8.357e-03
   C3H8            8.323e-04   8.323e-04    -3.080    -3.080     0.000     60.81
   CH3COO-         8.085e-06   6.638e-06    -5.092    -5.178    -0.086     39.55
   HCOO-           4.278e-07   3.469e-07    -6.369    -6.460    -0.091     25.34
   NH4CH3COO       3.483e-07   3.483e-07    -6.458    -6.458     0.000     64.41
   CH3COOH         3.801e-12   3.801e-12   -11.420   -11.420     0.000     49.00
   NH4(CH3COO)2-   3.423e-12   2.793e-12   -11.466   -11.554    -0.088    118.58
   CH3OH           8.501e-13   8.501e-13   -12.071   -12.071     0.000     38.08
   CH3CH2OH        6.119e-13   6.119e-13   -12.213   -12.213     0.000     54.99
   HCOOH           2.391e-14   2.391e-14   -13.621   -13.621     0.000     31.57
   CN-             1.968e-22   1.585e-22   -21.706   -21.800    -0.094     21.77
   CH2O            1.604e-23   1.604e-23   -22.795   -22.795     0.000     24.11
   HCN             1.508e-23   1.508e-23   -22.822   -22.822     0.000     42.10
   O2              0.000e+00   0.000e+00   -85.601   -85.595     0.006     27.49

------------------------------Saturation indices-------------------------------

  Phase               SI** log IAP   log K(273 K,   0 atm)

  [(aro)-O-(aro)] -20.56    -42.80  -22.24  O
  C                 1.70     72.09   70.39  C
  C3H8(g)          -0.39     -3.08   -2.69  C3H8
  CH4(g)           -2.21     -4.80   -2.59  CH4
  CO2(g)           -5.84    -13.51   -7.67  CO2
  H2(g)            -4.67     -7.69   -3.01  H2
  H2O(g)           -2.30     -0.00    2.30  H2O
  Ice              -0.05     -0.00    0.05  H2O
  KerogenC128    -292.75  11222.9311515.69  C128H68O7
  KerogenC292    -233.40  28615.3528848.75  C292H288O12
  KerogenC515    -1413.20  50177.3651590.56  C515H596O72
  NH3(g)           -2.93     -0.55    2.37  NH3
  NH4HCO3          -3.65     -3.99   -0.35  NH4HCO3
  O2(g)           -82.94    -85.59   -2.66  O2

**For a gas, SI = log10(fugacity). Fugacity = pressure * phi / 1 atm.
  For ideal gases, phi = 1.

Initial solution 1.	Box 0-1

-----------------------------Solution composition------------------------------

	Elements           Molality       Moles

	Pure water     

----------------------------Description of solution----------------------------

                                       pH  =   7.000    
                                       pe  =   4.000    
                          Density (g/cm³)  =   0.99980
                               Volume (L)  = 100.02037
                        Activity of water  =   1.000
                 Ionic strength (mol/kgw)  =   5.594e-08
                       Mass of water (kg)  =   1.000e+02
                 Total alkalinity (eq/kg)  =  -8.818e-08
                         Temperature (°C)  =   0.01
                           Pressure (atm)  =  0.14
                  Electrical balance (eq)  =   8.818e-06
 Percent error, 100*(Cat-|An|)/(Cat+|An|)  =  78.81
                               Iterations  =   2 (14 overall)
                                  Total H  = 1.110507e+04
                                  Total O  = 5.552533e+03

----------------------------Distribution of species----------------------------

                                               Log       Log       Log    mole V
   Species          Molality    Activity  Molality  Activity     Gamma   cm³/mol

   H+              1.000e-07   1.000e-07    -7.000    -7.000    -0.000      0.00
   OH-             1.185e-08   1.185e-08    -7.926    -7.926    -0.000     -6.20
   H2O             5.553e+01   1.000e+00     1.744    -0.000     0.000     18.02
H(0)          4.682e-26
   H2              2.341e-26   2.341e-26   -25.631   -25.631     0.000     22.65
O(0)          0.000e+00
   O2              0.000e+00   0.000e+00   -49.699   -49.699     0.000     27.49

------------------------------Saturation indices-------------------------------

  Phase               SI** log IAP   log K(273 K,   0 atm)

  [(aro)-O-(aro)]  -2.61    -24.85  -22.24  O
  H2(g)           -22.62    -25.63   -3.01  H2
  H2O(g)           -2.30     -0.00    2.30  H2O
  Ice              -0.05     -0.00    0.05  H2O
  O2(g)           -47.04    -49.70   -2.66  O2

**For a gas, SI = log10(fugacity). Fugacity = pressure * phi / 1 atm.
  For ideal gases, phi = 1.

Initial solution 2.	Box 1-2

-----------------------------Solution composition------------------------------

	Elements           Molality       Moles

	Pure water     

----------------------------Description of solution----------------------------

                                       pH  =   7.000    
                                       pe  =   4.000    
                          Density (g/cm³)  =   0.99981
                               Volume (L)  = 100.01888
                        Activity of water  =   1.000
                 Ionic strength (mol/kgw)  =   5.594e-08
                       Mass of water (kg)  =   1.000e+02
                 Total alkalinity (eq/kg)  =  -8.818e-08
                         Temperature (°C)  =   0.01
                           Pressure (atm)  =  0.43
                  Electrical balance (eq)  =   8.818e-06
 Percent error, 100*(Cat-|An|)/(Cat+|An|)  =  78.81
                               Iterations  =   2 (16 overall)
                                  Total H  = 1.110507e+04
                                  Total O  = 5.552533e+03

----------------------------Distribution of species----------------------------

                                               Log       Log       Log    mole V
   Species          Molality    Activity  Molality  Activity     Gamma   cm³/mol

   H+              1.000e-07   1.000e-07    -7.000    -7.000    -0.000      0.00
   OH-             1.185e-08   1.185e-08    -7.926    -7.926    -0.000     -6.20
   H2O             5.553e+01   1.000e+00     1.744    -0.000     0.000     18.02
H(0)          4.682e-26
   H2              2.341e-26   2.341e-26   -25.631   -25.631     0.000     22.65
O(0)          0.000e+00
   O2              0.000e+00   0.000e+00   -49.699   -49.699     0.000     27.49

------------------------------Saturation indices-------------------------------

  Phase               SI** log IAP   log K(273 K,   0 atm)

  [(aro)-O-(aro)]  -2.61    -24.85  -22.24  O
  H2(g)           -22.62    -25.63   -3.01  H2
  H2O(g)           -2.30     -0.00    2.30  H2O
  Ice              -0.05     -0.00    0.05  H2O
  O2(g)           -47.04    -49.70   -2.66  O2

**For a gas, SI = log10(fugacity). Fugacity = pressure * phi / 1 atm.
  For ideal gases, phi = 1.

Initial solution 3.	Box 2-3

-----------------------------Solution composition------------------------------

	Elements           Molality       Moles

	Pure water     

----------------------------Description of solution----------------------------

                                       pH  =   7.000    
                                       pe  =   4.000    
                          Density (g/cm³)  =   0.99703
                               Volume (L)  = 100.29785
                        Activity of water  =   1.000
                 Ionic strength (mol/kgw)  =   9.821e-08
                       Mass of water (kg)  =   1.000e+02
                 Total alkalinity (eq/kg)  =  -3.654e-09
                         Temperature (°C)  =  25.00
                           Pressure (atm)  =  0.72
                  Electrical balance (eq)  =   3.654e-07
 Percent error, 100*(Cat-|An|)/(Cat+|An|)  =   1.86
                               Iterations  =   2 (18 overall)
                                  Total H  = 1.110507e+04
                                  Total O  = 5.552533e+03

----------------------------Distribution of species----------------------------

                                               Log       Log       Log    mole V
   Species          Molality    Activity  Molality  Activity     Gamma   cm³/mol

   H+              1.000e-07   1.000e-07    -7.000    -7.000    -0.000      0.00
   OH-             9.638e-08   9.635e-08    -7.016    -7.016    -0.000     -4.14
   H2O             5.553e+01   1.000e+00     1.744    -0.000     0.000     18.07
H(0)          1.587e-25
   H2              7.935e-26   7.935e-26   -25.100   -25.100     0.000     25.21
O(0)          0.000e+00
   O2              0.000e+00   0.000e+00   -41.995   -41.995     0.000     30.40

------------------------------Saturation indices-------------------------------

  Phase               SI** log IAP   log K(298 K,   1 atm)

  [(aro)-O-(aro)]  -0.39    -21.00  -20.61  O
  H2(g)           -22.00    -25.10   -3.10  H2
  H2O(g)           -1.59     -0.00    1.59  H2O
  Ice              -0.14     -0.00    0.14  H2O
  O2(g)           -39.10    -42.00   -2.89  O2

**For a gas, SI = log10(fugacity). Fugacity = pressure * phi / 1 atm.
  For ideal gases, phi = 1.

Initial solution 4.	Box 3-4

-----------------------------Solution composition------------------------------

	Elements           Molality       Moles

	Pure water     

----------------------------Description of solution----------------------------

                                       pH  =   7.000    
                                       pe  =   4.000    
                          Density (g/cm³)  =   0.99704
                               Volume (L)  = 100.29654
                        Activity of water  =   1.000
                 Ionic strength (mol/kgw)  =   9.821e-08
                       Mass of water (kg)  =   1.000e+02
                 Total alkalinity (eq/kg)  =  -3.653e-09
                         Temperature (°C)  =  25.00
                           Pressure (atm)  =  1.01
                  Electrical balance (eq)  =   3.653e-07
 Percent error, 100*(Cat-|An|)/(Cat+|An|)  =   1.86
                               Iterations  =   2 (20 overall)
                                  Total H  = 1.110507e+04
                                  Total O  = 5.552533e+03

----------------------------Distribution of species----------------------------

                                               Log       Log       Log    mole V
   Species          Molality    Activity  Molality  Activity     Gamma   cm³/mol

   H+              1.000e-07   1.000e-07    -7.000    -7.000    -0.000      0.00
   OH-             9.638e-08   9.635e-08    -7.016    -7.016    -0.000     -4.14
   H2O             5.553e+01   1.000e+00     1.744    -0.000     0.000     18.07
H(0)          1.587e-25
   H2              7.935e-26   7.935e-26   -25.100   -25.100     0.000     25.21
O(0)          0.000e+00
   O2              0.000e+00   0.000e+00   -41.995   -41.995     0.000     30.40

------------------------------Saturation indices-------------------------------

  Phase               SI** log IAP   log K(298 K,   1 atm)

  [(aro)-O-(aro)]  -0.39    -21.00  -20.61  O
  H2(g)           -22.00    -25.10   -3.10  H2
  H2O(g)           -1.59     -0.00    1.59  H2O
  Ice              -0.14     -0.00    0.14  H2O
  O2(g)           -39.10    -42.00   -2.89  O2

**For a gas, SI = log10(fugacity). Fugacity = pressure * phi / 1 atm.
  For ideal gases, phi = 1.

Initial solution 5.	Box 4-5

-----------------------------Solution composition------------------------------

	Elements           Molality       Moles

	Pure water     

----------------------------Description of solution----------------------------

                                       pH  =   7.000    
                                       pe  =   4.000    
                          Density (g/cm³)  =   0.99986
                               Volume (L)  = 100.01440
                        Activity of water  =   1.000
                 Ionic strength (mol/kgw)  =   5.594e-08
                       Mass of water (kg)  =   1.000e+02
                 Total alkalinity (eq/kg)  =  -8.817e-08
                         Temperature (°C)  =   0.01
                           Pressure (atm)  =  1.30
                  Electrical balance (eq)  =   8.817e-06
 Percent error, 100*(Cat-|An|)/(Cat+|An|)  =  78.81
                               Iterations  =   2 (22 overall)
                                  Total H  = 1.110507e+04
                                  Total O  = 5.552533e+03

----------------------------Distribution of species----------------------------

                                               Log       Log       Log    mole V
   Species          Molality    Activity  Molality  Activity     Gamma   cm³/mol

   H+              1.000e-07   1.000e-07    -7.000    -7.000    -0.000      0.00
   OH-             1.186e-08   1.185e-08    -7.926    -7.926    -0.000     -6.19
   H2O             5.553e+01   1.000e+00     1.744    -0.000     0.000     18.02
H(0)          4.681e-26
   H2              2.340e-26   2.340e-26   -25.631   -25.631     0.000     22.65
O(0)          0.000e+00
   O2              0.000e+00   0.000e+00   -49.699   -49.699     0.000     27.49

------------------------------Saturation indices-------------------------------

  Phase               SI** log IAP   log K(273 K,   1 atm)

  [(aro)-O-(aro)]  -2.61    -24.85  -22.24  O
  H2(g)           -22.62    -25.63   -3.01  H2
  H2O(g)           -2.30     -0.00    2.30  H2O
  Ice              -0.05     -0.00    0.05  H2O
  O2(g)           -47.04    -49.70   -2.66  O2

**For a gas, SI = log10(fugacity). Fugacity = pressure * phi / 1 atm.
  For ideal gases, phi = 1.

Initial solution 6.	Box 5-6

-----------------------------Solution composition------------------------------

	Elements           Molality       Moles

	Pure water     

----------------------------Description of solution----------------------------

                                       pH  =   7.000    
                                       pe  =   4.000    
                          Density (g/cm³)  =   0.99987
                               Volume (L)  = 100.01291
                        Activity of water  =   1.000
                 Ionic strength (mol/kgw)  =   5.594e-08
                       Mass of water (kg)  =   1.000e+02
                 Total alkalinity (eq/kg)  =  -8.817e-08
                         Temperature (°C)  =   0.01
                           Pressure (atm)  =  1.58
                  Electrical balance (eq)  =   8.817e-06
 Percent error, 100*(Cat-|An|)/(Cat+|An|)  =  78.80
                               Iterations  =   2 (24 overall)
                                  Total H  = 1.110507e+04
                                  Total O  = 5.552533e+03

----------------------------Distribution of species----------------------------

                                               Log       Log       Log    mole V
   Species          Molality    Activity  Molality  Activity     Gamma   cm³/mol

   H+              1.000e-07   1.000e-07    -7.000    -7.000    -0.000      0.00
   OH-             1.186e-08   1.186e-08    -7.926    -7.926    -0.000     -6.18
   H2O             5.553e+01   1.000e+00     1.744    -0.000     0.000     18.02
H(0)          4.679e-26
   H2              2.340e-26   2.340e-26   -25.631   -25.631     0.000     22.65
O(0)          0.000e+00
   O2              0.000e+00   0.000e+00   -49.699   -49.699     0.000     27.49

------------------------------Saturation indices-------------------------------

  Phase               SI** log IAP   log K(273 K,   2 atm)

  [(aro)-O-(aro)]  -2.61    -24.85  -22.24  O
  H2(g)           -22.62    -25.63   -3.01  H2
  H2O(g)           -2.30     -0.00    2.30  H2O
  Ice              -0.05     -0.00    0.05  H2O
  O2(g)           -47.04    -49.70   -2.66  O2

**For a gas, SI = log10(fugacity). Fugacity = pressure * phi / 1 atm.
  For ideal gases, phi = 1.

Initial solution 7.	Box 6-7

-----------------------------Solution composition------------------------------

	Elements           Molality       Moles

	Pure water     

----------------------------Description of solution----------------------------

                                       pH  =   7.000    
                                       pe  =   4.000    
                          Density (g/cm³)  =   0.99989
                               Volume (L)  = 100.01141
                        Activity of water  =   1.000
                 Ionic strength (mol/kgw)  =   5.594e-08
                       Mass of water (kg)  =   1.000e+02
                 Total alkalinity (eq/kg)  =  -8.816e-08
                         Temperature (°C)  =   0.01
                           Pressure (atm)  =  1.87
                  Electrical balance (eq)  =   8.816e-06
 Percent error, 100*(Cat-|An|)/(Cat+|An|)  =  78.80
                               Iterations  =   2 (26 overall)
                                  Total H  = 1.110507e+04
                                  Total O  = 5.552533e+03

----------------------------Distribution of species----------------------------

                                               Log       Log       Log    mole V
   Species          Molality    Activity  Molality  Activity     Gamma   cm³/mol

   H+              1.000e-07   1.000e-07    -7.000    -7.000    -0.000      0.00
   OH-             1.186e-08   1.186e-08    -7.926    -7.926    -0.000     -6.18
   H2O             5.553e+01   1.000e+00     1.744    -0.000     0.000     18.02
H(0)          4.678e-26
   H2              2.339e-26   2.339e-26   -25.631   -25.631     0.000     22.65
O(0)          0.000e+00
   O2              0.000e+00   0.000e+00   -49.699   -49.699     0.000     27.49

------------------------------Saturation indices-------------------------------

  Phase               SI** log IAP   log K(273 K,   2 atm)

  [(aro)-O-(aro)]  -2.61    -24.85  -22.24  O
  H2(g)           -22.62    -25.63   -3.01  H2
  H2O(g)           -2.30     -0.00    2.30  H2O
  Ice              -0.05     -0.00    0.05  H2O
  O2(g)           -47.04    -49.70   -2.66  O2

**For a gas, SI = log10(fugacity). Fugacity = pressure * phi / 1 atm.
  For ideal gases, phi = 1.

Initial solution 8.	Box 7-8

-----------------------------Solution composition------------------------------

	Elements           Molality       Moles

	Pure water     

----------------------------Description of solution----------------------------

                                       pH  =   7.000    
                                       pe  =   4.000    
                          Density (g/cm³)  =   0.99990
                               Volume (L)  = 100.00992
                        Activity of water  =   1.000
                 Ionic strength (mol/kgw)  =   5.595e-08
                       Mass of water (kg)  =   1.000e+02
                 Total alkalinity (eq/kg)  =  -8.816e-08
                         Temperature (°C)  =   0.01
                           Pressure (atm)  =  2.16
                  Electrical balance (eq)  =   8.816e-06
 Percent error, 100*(Cat-|An|)/(Cat+|An|)  =  78.79
                               Iterations  =   2 (28 overall)
                                  Total H  = 1.110507e+04
                                  Total O  = 5.552533e+03

----------------------------Distribution of species----------------------------

                                               Log       Log       Log    mole V
   Species          Molality    Activity  Molality  Activity     Gamma   cm³/mol

   H+              1.000e-07   1.000e-07    -7.000    -7.000    -0.000      0.00
   OH-             1.187e-08   1.186e-08    -7.926    -7.926    -0.000     -6.17
   H2O             5.553e+01   1.000e+00     1.744    -0.000     0.000     18.02
H(0)          4.677e-26
   H2              2.338e-26   2.338e-26   -25.631   -25.631     0.000     22.65
O(0)          0.000e+00
   O2              0.000e+00   0.000e+00   -49.699   -49.699     0.000     27.49

------------------------------Saturation indices-------------------------------

  Phase               SI** log IAP   log K(273 K,   2 atm)

  [(aro)-O-(aro)]  -2.61    -24.85  -22.24  O
  H2(g)           -22.62    -25.63   -3.01  H2
  H2O(g)           -2.30     -0.00    2.30  H2O
  Ice              -0.05     -0.00    0.05  H2O
  O2(g)           -47.04    -49.70   -2.66  O2

**For a gas, SI = log10(fugacity). Fugacity = pressure * phi / 1 atm.
  For ideal gases, phi = 1.

Initial solution 9.	Box 8-9

-----------------------------Solution composition------------------------------

	Elements           Molality       Moles

	Pure water     

----------------------------Description of solution----------------------------

                                       pH  =   7.000    
                                       pe  =   4.000    
                          Density (g/cm³)  =   0.99992
                               Volume (L)  = 100.00843
                        Activity of water  =   1.000
                 Ionic strength (mol/kgw)  =   5.595e-08
                       Mass of water (kg)  =   1.000e+02
                 Total alkalinity (eq/kg)  =  -8.816e-08
                         Temperature (°C)  =   0.01
                           Pressure (atm)  =  2.45
                  Electrical balance (eq)  =   8.816e-06
 Percent error, 100*(Cat-|An|)/(Cat+|An|)  =  78.78
                               Iterations  =   2 (30 overall)
                                  Total H  = 1.110507e+04
                                  Total O  = 5.552533e+03

----------------------------Distribution of species----------------------------

                                               Log       Log       Log    mole V
   Species          Molality    Activity  Molality  Activity     Gamma   cm³/mol

   H+              1.000e-07   1.000e-07    -7.000    -7.000    -0.000      0.00
   OH-             1.187e-08   1.187e-08    -7.926    -7.926    -0.000     -6.17
   H2O             5.553e+01   1.000e+00     1.744    -0.000     0.000     18.02
H(0)          4.675e-26
   H2              2.338e-26   2.338e-26   -25.631   -25.631     0.000     22.65
O(0)          0.000e+00
   O2              0.000e+00   0.000e+00   -49.699   -49.699     0.000     27.49

------------------------------Saturation indices-------------------------------

  Phase               SI** log IAP   log K(273 K,   2 atm)

  [(aro)-O-(aro)]  -2.61    -24.85  -22.24  O
  H2(g)           -22.62    -25.63   -3.01  H2
  H2O(g)           -2.30     -0.00    2.30  H2O
  Ice              -0.05     -0.00    0.05  H2O
  O2(g)           -47.04    -49.70   -2.66  O2

**For a gas, SI = log10(fugacity). Fugacity = pressure * phi / 1 atm.
  For ideal gases, phi = 1.

Initial solution 10.	Box 9-10

-----------------------------Solution composition------------------------------

	Elements           Molality       Moles

	Pure water     

----------------------------Description of solution----------------------------

                                       pH  =   7.000    
                                       pe  =   4.000    
                          Density (g/cm³)  =   0.99993
                               Volume (L)  = 100.00694
                        Activity of water  =   1.000
                 Ionic strength (mol/kgw)  =   5.595e-08
                       Mass of water (kg)  =   1.000e+02
                 Total alkalinity (eq/kg)  =  -8.815e-08
                         Temperature (°C)  =   0.01
                           Pressure (atm)  =  2.73
                  Electrical balance (eq)  =   8.815e-06
 Percent error, 100*(Cat-|An|)/(Cat+|An|)  =  78.78
                               Iterations  =   2 (32 overall)
                                  Total H  = 1.110507e+04
                                  Total O  = 5.552533e+03

----------------------------Distribution of species----------------------------

                                               Log       Log       Log    mole V
   Species          Molality    Activity  Molality  Activity     Gamma   cm³/mol

   H+              1.000e-07   1.000e-07    -7.000    -7.000    -0.000      0.00
   OH-             1.187e-08   1.187e-08    -7.925    -7.926    -0.000     -6.17
   H2O             5.553e+01   1.000e+00     1.744    -0.000     0.000     18.02
H(0)          4.674e-26
   H2              2.337e-26   2.337e-26   -25.631   -25.631     0.000     22.65
O(0)          0.000e+00
   O2              0.000e+00   0.000e+00   -49.699   -49.699     0.000     27.49

------------------------------Saturation indices-------------------------------

  Phase               SI** log IAP   log K(273 K,   3 atm)

  [(aro)-O-(aro)]  -2.61    -24.85  -22.24  O
  H2(g)           -22.62    -25.63   -3.01  H2
  H2O(g)           -2.30     -0.00    2.30  H2O
  Ice              -0.05     -0.00    0.05  H2O
  O2(g)           -47.04    -49.70   -2.66  O2

**For a gas, SI = log10(fugacity). Fugacity = pressure * phi / 1 atm.
  For ideal gases, phi = 1.

Initial solution 11.	Interface with the rocky mantle

-----------------------------Solution composition------------------------------

	Elements           Molality       Moles

	Pure water     

----------------------------Description of solution----------------------------

                                       pH  =   7.461      Charge balance
                                       pe  =   4.000    
                          Density (g/cm³)  =   1.00024
                               Volume (L)  =   0.99976
                        Activity of water  =   1.000
                 Ionic strength (mol/kgw)  =   3.457e-08
                       Mass of water (kg)  =   1.000e+00
                 Total alkalinity (eq/kg)  =   1.106e-18
                         Temperature (°C)  =   0.01
                           Pressure (atm)  =  8.63
                  Electrical balance (eq)  =  -1.106e-18
 Percent error, 100*(Cat-|An|)/(Cat+|An|)  =  -0.00
                               Iterations  =   4 (36 overall)
                                  Total H  = 1.110507e+02
                                  Total O  = 5.552533e+01

----------------------------Distribution of species----------------------------

                                               Log       Log       Log    mole V
   Species          Molality    Activity  Molality  Activity     Gamma   cm³/mol

   OH-             3.457e-08   3.456e-08    -7.461    -7.461    -0.000     -6.08
   H+              3.457e-08   3.456e-08    -7.461    -7.461    -0.000      0.00
   H2O             5.553e+01   1.000e+00     1.744    -0.000     0.000     18.01
H(0)          5.550e-27
   H2              2.775e-27   2.775e-27   -26.557   -26.557     0.000     22.65
O(0)          0.000e+00
   O2              0.000e+00   0.000e+00   -47.852   -47.852     0.000     27.49

------------------------------Saturation indices-------------------------------

  Phase               SI** log IAP   log K(273 K,   9 atm)

  [(aro)-O-(aro)]  -1.68    -23.93  -22.24  O
  H2(g)           -23.54    -26.56   -3.01  H2
  H2O(g)           -2.30     -0.00    2.30  H2O
  Ice              -0.05     -0.00    0.05  H2O
  O2(g)           -45.19    -47.85   -2.66  O2

**For a gas, SI = log10(fugacity). Fugacity = pressure * phi / 1 atm.
  For ideal gases, phi = 1.

-----------------------------------------
Beginning of batch-reaction calculations.
-----------------------------------------

Reaction step 1.

Using solution 11.	Interface with the rocky mantle
Using pure phase assemblage 1.	CM chondrite

-------------------------------Phase assemblage--------------------------------

                                                      Moles in assemblage
Phase               SI  log IAP  log K(T, P)   Initial       Final       Delta

Afwillite       -22.81    42.17     64.98    0.000e+00           0   0.000e+00
Akermanite      -10.50    39.28     49.79    0.000e+00           0   0.000e+00
Al              -94.09    71.16    165.24    0.000e+00           0   0.000e+00
Al2(SO4)3      -121.57   -96.89     24.68    0.000e+00           0   0.000e+00
Alabandite       -1.16    -1.20     -0.04    0.000e+00           0   0.000e+00
Albite           -2.49     0.85      3.34    0.000e+00           0   0.000e+00
Albite_high      -3.98     0.85      4.83    0.000e+00           0   0.000e+00
Albite_low       -2.49     0.85      3.34    0.000e+00           0   0.000e+00
Alum-K          -54.44   -59.57     -5.13    0.000e+00           0   0.000e+00
Alunite         -49.50   -46.25      3.25    0.000e+00           0   0.000e+00
Amesite-14A     -13.02    75.07     88.09    0.000e+00           0   0.000e+00
Analcime         -1.59     5.60      7.19    0.000e+00           0   0.000e+00
Andalusite      -12.01     7.61     19.62    0.000e+00           0   0.000e+00
Andradite        -0.00    37.90     37.90    0.000e+00   7.835e-02   7.835e-02
Anhydrite       -14.81   -18.88     -4.06    0.000e+00           0   0.000e+00
Annite            0.00    33.39     33.39    0.000e+00   1.101e-02   1.101e-02
Anorthite       -11.49    19.77     31.25    0.000e+00           0   0.000e+00
Anthophyllite   -14.71    59.19     73.90    0.000e+00           0   0.000e+00
Antigorite       -4.16   524.58    528.74    6.300e-02           0  -6.300e-02
Aragonite        -0.15     2.24      2.39    0.000e+00           0   0.000e+00
Arcanite        -19.98   -22.21     -2.24    0.000e+00           0   0.000e+00
Artinite         -7.46    14.31     21.77    0.000e+00           0   0.000e+00
Atacamite       -98.50   -82.07     16.43    0.000e+00           0   0.000e+00
Azurite         -81.77   -70.64     11.13    0.000e+00           0   0.000e+00
B               -62.34    57.38    119.71    5.500e-05           0  -5.500e-05
B2O3            -20.05   -14.25      5.79    0.000e+00           0   0.000e+00
Bassanite       -15.47   -18.88     -3.41    0.000e+00           0   0.000e+00
Bassetite       -52.43   -68.39    -15.96    0.000e+00           0   0.000e+00
Beidellite-Ca    -8.42    -2.03      6.38    0.000e+00           0   0.000e+00
Beidellite-Fe    -7.92    -3.02      4.89    0.000e+00           0   0.000e+00
Beidellite-K     -7.16    -2.62      4.54    0.000e+00           0   0.000e+00
Beidellite-Mg    -8.06    -2.54      5.52    0.000e+00           0   0.000e+00
Beidellite-Na    -6.87    -1.21      5.67    0.000e+00           0   0.000e+00
Berlinite       -17.42   -23.15     -5.73    0.000e+00           0   0.000e+00
Bieberite       -32.04   -34.73     -2.69    0.000e+00           0   0.000e+00
Bixbyite        -19.91   -17.77      2.14    0.000e+00           0   0.000e+00
Boehmite         -2.72     6.65      9.38    0.000e+00           0   0.000e+00
Borax           -16.71    -5.96     10.76    0.000e+00           0   0.000e+00
Boric_acid       -6.64    -7.13     -0.49    0.000e+00           0   0.000e+00
Bornite          -8.28  -119.23   -110.95    0.000e+00           0   0.000e+00
Brezinaite      -74.86   -68.66      6.21    0.000e+00           0   0.000e+00
Brochantite    -107.39   -89.29     18.09    0.000e+00           0   0.000e+00
Brucite          -3.13    14.96     18.09    3.750e-01           0  -3.750e-01
Bunsenite        -6.74     7.33     14.08    0.000e+00           0   0.000e+00
C                -0.00    70.39     70.39    0.000e+00   1.464e+00   1.464e+00
Ca              -92.16    60.86    153.02    0.000e+00           0   0.000e+00
Ca-Al_Pyroxene  -16.22    25.46     41.68    0.000e+00           0   0.000e+00
Ca3Al2O6        -59.57    66.87    126.43    0.000e+00           0   0.000e+00
Ca4Al2Fe2O10    -72.67    86.14    158.81    0.000e+00           0   0.000e+00
CaAl2O4         -22.78    31.16     53.94    0.000e+00           0   0.000e+00
CaAl4O7         -35.67    44.46     80.13    0.000e+00           0   0.000e+00
CaUO4           -10.68     7.37     18.06    0.000e+00           0   0.000e+00
Calcite           0.00     2.24      2.24    1.680e-01   3.804e-02  -1.300e-01
Cattierite       -5.98   -37.93    -31.96    0.000e+00           0   0.000e+00
Celadonite       -2.23     6.09      8.32    0.000e+00           0   0.000e+00
Chalcanthite    -47.18   -49.88     -2.70    0.000e+00           0   0.000e+00
Chalcedony       -1.37    -5.69     -4.32    0.000e+00           0   0.000e+00
Chalcocite       -4.25   -42.30    -38.05    0.000e+00           0   0.000e+00
Chalcocyanite   -53.90   -49.87      4.03    0.000e+00           0   0.000e+00
Chalcopyrite     -0.00   -34.63    -34.63    0.000e+00   1.800e-03   1.800e-03
Chamosite         0.00    57.15     57.15    0.000e+00   1.126e-01   1.126e-01
Chloromagnesite  -38.90   -14.55     24.36    0.000e+00           0   0.000e+00
Chromite          0.00    19.51     19.51    3.100e-02   2.810e-02  -2.900e-03
Chrysotile       -0.99    33.50     34.48    0.000e+00           0   0.000e+00
Clinochlore-14A   -5.82    71.03     76.85    1.500e-01           0  -1.500e-01
Clinochlore-7A   -9.41    71.03     80.44    0.000e+00           0   0.000e+00
Clinoptilolite-Ca  -21.83   -28.87     -7.04    0.000e+00           0   0.000e+00
Clinoptilolite-K  -21.39   -34.66    -13.27    0.000e+00           0   0.000e+00
Clinoptilolite-Na  -12.32   -20.70     -8.38    0.000e+00           0   0.000e+00
Clinozoisite    -11.75    38.58     50.33    0.000e+00           0   0.000e+00
Co              -12.91    45.02     57.93    9.700e-03           0  -9.700e-03
Co2SiO4          -9.68    -1.66      8.02    0.000e+00           0   0.000e+00
CoCl2           -36.98   -27.49      9.48    0.000e+00           0   0.000e+00
CoCl2:2H2O      -32.79   -27.50      5.29    0.000e+00           0   0.000e+00
CoCl2:6H2O      -30.01   -27.50      2.50    0.000e+00           0   0.000e+00
CoFe2O4          -0.00     3.44      3.44    0.000e+00   9.700e-03   9.700e-03
CoO             -13.24     2.02     15.26    0.000e+00           0   0.000e+00
CoS              -7.26   -14.82     -7.56    0.000e+00           0   0.000e+00
CoSO4           -38.83   -34.71      4.12    0.000e+00           0   0.000e+00
CoSO4:6H2O      -32.35   -34.72     -2.37    0.000e+00           0   0.000e+00
CoSO4:H2O       -34.30   -34.72     -0.41    0.000e+00           0   0.000e+00
Coesite          -1.96    -5.69     -3.74    0.000e+00           0   0.000e+00
Coffinite        -1.95    -9.26     -7.31    0.000e+00           0   0.000e+00
Cordierite_anhyd  -33.84    28.06     61.90    0.000e+00           0   0.000e+00
Cordierite_hydr  -31.09    28.06     59.15    0.000e+00           0   0.000e+00
Corundum         -9.06    13.30     22.36    0.000e+00           0   0.000e+00
Covellite        -5.50   -29.98    -24.48    1.800e-03           0  -1.800e-03
Cr              -41.05    68.16    109.22    0.000e+00           0   0.000e+00
CrCl3           -61.46   -40.61     20.85    0.000e+00           0   0.000e+00
CrO2            -19.10   -39.63    -20.53    0.000e+00           0   0.000e+00
CrO3            -67.15   -70.64     -3.49    0.000e+00           0   0.000e+00
CrS             -25.24   -25.46     -0.22    0.000e+00           0   0.000e+00
Cristobalite(alpha)   -1.69    -5.69     -4.00    0.000e+00           0   0.000e+00
Cristobalite(beta)   -2.21    -5.69     -3.49    0.000e+00           0   0.000e+00
Cronstedtite-7A    0.00    20.10     20.10    6.300e-01   6.786e-01   4.856e-02
Cu               -5.07    29.86     34.93    0.000e+00           0   0.000e+00
CuCl2           -47.11   -42.65      4.46    0.000e+00           0   0.000e+00
CuCr2O4         -26.43    -5.82     20.61    0.000e+00           0   0.000e+00
Cuprite         -23.14   -25.46     -2.33    0.000e+00           0   0.000e+00
Daphnite-14A     -3.21    57.15     60.36    0.000e+00           0   0.000e+00
Daphnite-7A      -6.83    57.15     63.98    0.000e+00           0   0.000e+00
Dawsonite        -3.26     2.32      5.58    0.000e+00           0   0.000e+00
Delafossite      -5.91   -12.02     -6.11    0.000e+00           0   0.000e+00
Diaspore         -2.28     6.65      8.93    0.000e+00           0   0.000e+00
Dicalcium_silicate  -10.57    30.01     40.59    0.000e+00           0   0.000e+00
Diopside         -1.51    21.43     22.94    0.000e+00           0   0.000e+00
Dioptase        -25.26   -18.84      6.42    0.000e+00           0   0.000e+00
Dolomite         -1.86     1.60      3.45    0.000e+00           0   0.000e+00
Dolomite-dis     -3.59     1.60      5.19    0.000e+00           0   0.000e+00
Dolomite-ord     -1.85     1.60      3.44    0.000e+00           0   0.000e+00
Enstatite        -3.31     9.27     12.57    0.000e+00           0   0.000e+00
Epidote          -6.22    32.64     38.86    0.000e+00           0   0.000e+00
Epidote-ord      -6.23    32.64     38.87    0.000e+00           0   0.000e+00
Eskolaite        -3.48   -12.27     -8.80    0.000e+00           0   0.000e+00
Ettringite      -58.83    10.17     69.00    0.000e+00           0   0.000e+00
Eu              -99.63    81.90    181.53    4.950e-07           0  -4.950e-07
Eu(OH)3          -0.00    17.40     17.40    0.000e+00   4.940e-07   4.940e-07
Eu2(SO4)3:8H2O  -65.84   -75.41     -9.57    0.000e+00           0   0.000e+00
Eu2O3(cubic)    -23.48    34.80     58.28    0.000e+00           0   0.000e+00
Eu2O3(monoclinic)  -25.27    34.80     60.07    0.000e+00           0   0.000e+00
Eu3O4           -54.10    42.73     96.83    0.000e+00           0   0.000e+00
EuCl2           -28.08   -21.58      6.50    0.000e+00           0   0.000e+00
EuCl3           -49.21   -26.87     22.34    0.000e+00           0   0.000e+00
EuCl3:6H2O      -32.41   -26.88      5.53    0.000e+00           0   0.000e+00
EuOCl           -15.34     2.64     17.98    0.000e+00           0   0.000e+00
EuS             -25.34    -8.90     16.44    0.000e+00           0   0.000e+00
EuSO4           -19.36   -28.80     -9.44    0.000e+00           0   0.000e+00
Eucryptite       -6.42     9.40     15.81    1.950e-04           0  -1.950e-04
Fayalite         -2.79    18.68     21.47    0.000e+00           0   0.000e+00
Fe               -9.79    55.19     64.98    0.000e+00           0   0.000e+00
Fe(OH)2          -3.26    12.19     15.44    0.000e+00           0   0.000e+00
Fe(OH)3          -6.30     0.71      7.01    0.000e+00           0   0.000e+00
Fe2(SO4)3      -115.78  -108.77      7.00    0.000e+00           0   0.000e+00
FeO              -3.05    12.19     15.23    0.000e+00           0   0.000e+00
FeSO4           -28.31   -24.54      3.77    0.000e+00           0   0.000e+00
Ferrite-Ca       -6.49    19.27     25.76    0.000e+00           0   0.000e+00
Ferrite-Cu      -25.42   -11.72     13.71    0.000e+00           0   0.000e+00
Ferrite-Dicalcium  -27.32    37.13     64.45    0.000e+00           0   0.000e+00
Ferrite-Mg       -9.15    16.38     25.53    0.000e+00           0   0.000e+00
Ferrite-Zn       -9.71     5.65     15.36    0.000e+00           0   0.000e+00
Ferrosilite      -1.80     6.49      8.29    0.000e+00           0   0.000e+00
Forsterite       -6.85    24.23     31.09    3.250e-01           0  -3.250e-01
Foshagite       -17.13    54.33     71.46    0.000e+00           0   0.000e+00
Gd             -113.34    85.12    198.46    1.740e-06           0  -1.740e-06
Gehlenite       -20.75    43.32     64.07    0.000e+00           0   0.000e+00
Gibbsite         -2.73     6.65      9.38    0.000e+00           0   0.000e+00
Goethite         -0.82     0.71      1.53    0.000e+00           0   0.000e+00
Greenalite       -0.01    25.17     25.18    0.000e+00           0   0.000e+00
Grossular        -8.81    49.78     58.59    0.000e+00           0   0.000e+00
Gypsum          -14.38   -18.88     -4.50    0.000e+00           0   0.000e+00
Gyrolite         -5.39    18.62     24.01    0.000e+00           0   0.000e+00
Halite           -4.98    -3.47      1.51    4.500e-03           0  -4.500e-03
Hatrurite       -32.44    47.87     80.30    0.000e+00           0   0.000e+00
Hausmannite     -16.64    -2.13     14.51    0.000e+00           0   0.000e+00
Heazlewoodite    -1.20    31.33     32.53    0.000e+00           0   0.000e+00
Hedenbergite     -2.78    18.65     21.44    0.000e+00           0   0.000e+00
Hematite         -0.74     1.42      2.16    0.000e+00           0   0.000e+00
Hercynite        -8.89    25.49     34.38    0.000e+00           0   0.000e+00
Hillebrandite   -10.00    30.01     40.01    0.000e+00           0   0.000e+00
Huntite         -12.70     0.30     13.00    0.000e+00           0   0.000e+00
Hydromagnesite  -23.28    12.37     35.65    0.000e+00           0   0.000e+00
Hydrophilite    -24.70   -11.66     13.05    0.000e+00           0   0.000e+00
Hydroxyapatite   -0.00    -0.15     -0.15    1.000e-02   9.979e-03  -2.118e-05
Ice              -0.05    -0.00      0.05    0.000e+00           0   0.000e+00
Ilmenite          0.00     0.91      0.91    0.000e+00   1.200e-02   1.200e-02
Jadeite          -3.02     6.55      9.57    0.000e+00           0   0.000e+00
Jarosite        -57.67   -64.08     -6.41    0.000e+00           0   0.000e+00
K               -48.50    28.76     77.27    0.000e+00           0   0.000e+00
K-Feldspar       -3.02    -3.17     -0.15    0.000e+00           0   0.000e+00
K2O             -76.36    14.52     90.88    0.000e+00           0   0.000e+00
KAl(SO4)2       -65.04   -59.55      5.49    0.000e+00           0   0.000e+00
Kalsilite        -4.33     8.22     12.55    0.000e+00           0   0.000e+00
Kaolinite        -7.16     1.91      9.07    0.000e+00           0   0.000e+00
KerogenC128    -504.53  11011.26  11515.80    9.200e-03           0  -9.200e-03
KerogenC292    -702.08  28146.94  28849.02    0.000e+00           0   0.000e+00
KerogenC515   -2241.18  49349.87  51591.05    0.000e+00           0   0.000e+00
Kyanite         -11.67     7.61     19.28    0.000e+00           0   0.000e+00
Larnite         -12.02    30.01     42.03    0.000e+00           0   0.000e+00
Laumontite       -7.92     8.37     16.29    0.000e+00           0   0.000e+00
Lawrencite      -27.73   -17.32     10.41    0.000e+00           0   0.000e+00
Lawsonite        -6.21    19.76     25.98    0.000e+00           0   0.000e+00
Li              -49.54    29.94     79.48    0.000e+00           0   0.000e+00
Lime            -17.83    17.85     35.69    0.000e+00           0   0.000e+00
Linnaeite       -13.90  -127.65   -113.75    0.000e+00           0   0.000e+00
Lizardite        -0.00    33.50     33.50    0.000e+00   1.600e+00   1.600e+00
Lopezite       -107.89  -126.76    -18.87    0.000e+00           0   0.000e+00
Magnesiochromite   -4.33    22.29     26.62    0.000e+00           0   0.000e+00
Magnesite        -3.64    -0.65      3.00    0.000e+00           0   0.000e+00
Magnetite        -0.31    13.61     13.92    6.000e-02           0  -6.000e-02
Malachite       -49.05   -41.89      7.16    0.000e+00           0   0.000e+00
Manganosite      -4.23    15.64     19.87    0.000e+00           0   0.000e+00
Margarite       -16.19    33.07     49.26    0.000e+00           0   0.000e+00
Maximum_Microcline   -3.01    -3.17     -0.16    0.000e+00           0   0.000e+00
Mayenite       -251.99   307.37    559.37    0.000e+00           0   0.000e+00
Melanterite     -22.01   -24.56     -2.55    0.000e+00           0   0.000e+00
Merwinite       -18.12    57.13     75.26    0.000e+00           0   0.000e+00
Mesolite         -0.81    15.45     16.26    0.000e+00           0   0.000e+00
Mg              -76.51    57.97    134.47    0.000e+00           0   0.000e+00
MgOHCl          -17.60     0.21     17.81    0.000e+00           0   0.000e+00
MgSO4           -28.04   -21.77      6.28    0.000e+00           0   0.000e+00
Millerite        -1.26    -9.50     -8.25    2.000e-01           0  -2.000e-01
Minnesotaite     -1.55    13.78     15.34    0.000e+00           0   0.000e+00
Mirabilite      -11.89   -14.18     -2.30    0.000e+00           0   0.000e+00
Mn              -32.31    58.64     90.95    0.000e+00           0   0.000e+00
Mn(OH)2(am)      -1.26    15.64     16.90    0.000e+00           0   0.000e+00
MnCl2:2H2O      -18.41   -13.87      4.54    0.000e+00           0   0.000e+00
MnCl2:4H2O      -16.82   -13.88      2.94    0.000e+00           0   0.000e+00
MnCl2:H2O       -20.20   -13.87      6.32    0.000e+00           0   0.000e+00
MnSO4           -24.73   -21.09      3.64    0.000e+00           0   0.000e+00
Mo              -21.20    99.13    120.33    1.500e-05           0  -1.500e-05
Molysite        -59.43   -43.56     15.87    0.000e+00           0   0.000e+00
Monohydrocalcite   -0.78     2.24      3.02    0.000e+00           0   0.000e+00
Monticellite     -5.53    27.12     32.65    0.000e+00           0   0.000e+00
Montmor-Ca       -7.14    -3.44      3.69    0.000e+00           0   0.000e+00
Montmor-K        -6.49    -4.03      2.46    0.000e+00           0   0.000e+00
Montmor-Mg       -6.98    -3.95      3.03    0.000e+00           0   0.000e+00
Montmor-Na       -6.30    -2.62      3.68    0.000e+00           0   0.000e+00
Mordenite        -7.44   -13.33     -5.89    0.000e+00           0   0.000e+00
Morenosite      -27.20   -29.41     -2.21    0.000e+00           0   0.000e+00
Muscovite        -7.09    10.13     17.21    0.000e+00           0   0.000e+00
NH4-feldspar     -3.74   -10.88     -7.14    0.000e+00           0   0.000e+00
NH4-muscovite     0.00     2.42      2.42    0.000e+00   5.200e-02   5.200e-02
NH4Cl           -16.10   -15.21      0.90    0.000e+00           0   0.000e+00
NH4HCO3         -15.71   -16.06     -0.35    0.000e+00           0   0.000e+00
Na              -40.69    32.78     73.47    0.000e+00           0   0.000e+00
Na2CO3           -4.87     6.96     11.82    0.000e+00           0   0.000e+00
Na2CO3:7H2O      -2.68     6.94      9.62    0.000e+00           0   0.000e+00
Na2Cr2O7       -108.10  -118.71    -10.62    0.000e+00           0   0.000e+00
Na2CrO4         -51.26   -48.07      3.19    0.000e+00           0   0.000e+00
Na2O            -50.51    22.57     73.08    0.000e+00           0   0.000e+00
Na2SiO3          -6.63    16.87     23.50    3.000e-02           0  -3.000e-02
Na2U2O7         -23.78     1.60     25.38    0.000e+00           0   0.000e+00
NaFeO2          -10.53    11.99     22.52    0.000e+00           0   0.000e+00
NaUO3            -9.10     0.16      9.26    0.000e+00           0   0.000e+00
Nahcolite        -3.95    -4.33     -0.37    0.000e+00           0   0.000e+00
Nantokite       -20.04   -27.49     -7.45    0.000e+00           0   0.000e+00
Natrolite        -2.50    18.78     21.29    0.000e+00           0   0.000e+00
Natron           -1.93     6.94      8.87    0.000e+00           0   0.000e+00
Natrosilite      -7.63    11.18     18.81    0.000e+00           0   0.000e+00
Nepheline        -3.64    12.24     15.88    0.000e+00           0   0.000e+00
Nesquehonite     -6.93    -0.65      6.28    0.000e+00           0   0.000e+00
Ni               -5.99    50.34     56.32    0.000e+00           0   0.000e+00
Ni(OH)2          -6.97     7.33     14.30    0.000e+00           0   0.000e+00
Ni2SiO4          -7.32     8.97     16.30    0.000e+00           0   0.000e+00
NiCl2           -32.05   -22.18      9.88    0.000e+00           0   0.000e+00
NiCl2:2H2O      -26.69   -22.18      4.51    0.000e+00           0   0.000e+00
NiSO4           -36.11   -29.40      6.71    0.000e+00           0   0.000e+00
NiSO4:6H2O(alpha)  -27.36   -29.41     -2.05    0.000e+00           0   0.000e+00
Nickelbischofite  -25.38   -22.19      3.20    0.000e+00           0   0.000e+00
Ningyoite       -16.06   -45.33    -29.27    0.000e+00           0   0.000e+00
Niter          -106.27  -107.06     -0.80    0.000e+00           0   0.000e+00
Nontronite-Ca    -5.37   -13.92     -8.55    0.000e+00           0   0.000e+00
Nontronite-K     -4.12   -14.50    -10.37    3.150e-02           0  -3.150e-02
Nontronite-Mg    -5.02   -14.42     -9.40    0.000e+00           0   0.000e+00
Nontronite-Na    -3.84   -13.09     -9.25    3.000e-01           0  -3.000e-01
Okenite          -4.12     6.46     10.58    0.000e+00           0   0.000e+00
P               -67.88    77.70    145.58    0.000e+00           0   0.000e+00
Paragonite       -7.52    14.15     21.67    0.000e+00           0   0.000e+00
Pargasite       -22.99    92.63    115.62    0.000e+00           0   0.000e+00
Periclase        -8.78    14.96     23.75    0.000e+00           0   0.000e+00
Petalite         -3.75    -7.69     -3.94    0.000e+00           0   0.000e+00
Phlogopite       -0.46    41.72     42.18    0.000e+00           0   0.000e+00
Polydymite       -0.00   -51.63    -51.63    0.000e+00   6.667e-02   6.667e-02
Portlandite      -6.78    17.85     24.63    0.000e+00           0   0.000e+00
Prehnite         -5.75    31.92     37.67    0.000e+00           0   0.000e+00
Pseudowollastonite   -3.03    12.16     15.19    0.000e+00           0   0.000e+00
Pyridine        -45.33   480.99    526.31    5.200e-02           0  -5.200e-02
Pyrite           -0.00   -26.46    -26.46    0.000e+00   3.797e-01   3.797e-01
Pyrolusite      -25.84   -44.83    -18.99    0.000e+00           0   0.000e+00
Pyrophyllite    -11.20    -9.48      1.72    0.000e+00           0   0.000e+00
Pyrrhotite       -1.04    -4.65     -3.61    0.000e+00           0   0.000e+00
Quartz           -1.08    -5.69     -4.62    0.000e+00           0   0.000e+00
Rankinite       -14.42    42.17     56.59    0.000e+00           0   0.000e+00
Rhodochrosite    -0.10     0.03      0.13    0.000e+00           0   0.000e+00
Rhodonite        -0.74     9.95     10.69    0.000e+00           0   0.000e+00
Ripidolite      -16.33    65.48     81.81    0.000e+00           0   0.000e+00
Rutherfordine   -22.28   -26.09     -3.81    0.000e+00           0   0.000e+00
Rutile           -1.64   -11.28     -9.64    1.200e-02           0  -1.200e-02
S               -10.51   -59.84    -49.33    0.000e+00           0   0.000e+00
Saleeite        -47.86   -65.61    -17.75    0.000e+00           0   0.000e+00
Sanidine_high    -4.39    -3.17      1.22    0.000e+00           0   0.000e+00
Saponite-Fe-Ca   -1.55    21.23     22.77    0.000e+00           0   0.000e+00
Saponite-Fe-K    -0.29    20.64     20.94    0.000e+00           0   0.000e+00
Saponite-Fe-Mg   -1.19    20.72     21.91    0.000e+00           0   0.000e+00
Saponite-Fe-Na    0.00    22.05     22.05    0.000e+00   6.870e-02   6.870e-02
Saponite-Mg-Ca   -2.69    29.56     32.24    0.000e+00           0   0.000e+00
Saponite-Mg-Fe   -2.17    28.56     30.74    0.000e+00           0   0.000e+00
Saponite-Mg-K    -1.44    28.97     30.41    0.000e+00           0   0.000e+00
Saponite-Mg-Mg   -2.32    29.05     31.37    0.000e+00           0   0.000e+00
Saponite-Mg-Na   -1.17    30.38     31.55    0.000e+00           0   0.000e+00
Sc              -87.13    96.67    183.80    1.800e-04           0  -1.800e-04
Scacchite       -23.79   -13.87      9.92    0.000e+00           0   0.000e+00
Schoepite       -16.14   -10.49      5.66    0.000e+00           0   0.000e+00
Scolecite        -4.85    14.07     18.92    0.000e+00           0   0.000e+00
Sepiolite        -6.84    25.67     32.51    0.000e+00           0   0.000e+00
Si              -82.33    80.31    162.64    0.000e+00           0   0.000e+00
SiO2(am)         -2.59    -5.69     -3.11    0.000e+00           0   0.000e+00
Siderite         -3.73    -3.42      0.31    0.000e+00           0   0.000e+00
Sillimanite     -12.43     7.61     20.04    0.000e+00           0   0.000e+00
Sm             -113.26    32.46    145.71    1.320e-06           0  -1.320e-06
Smectite-high-Fe-Mg   -5.47    14.85     20.33    0.000e+00           0   0.000e+00
Smectite-low-Fe-Mg   -5.47     7.57     13.04    0.000e+00           0   0.000e+00
Smithsonite     -12.32   -11.38      0.94    0.000e+00           0   0.000e+00
Sphaerocobaltite  -13.84   -13.59      0.24    0.000e+00           0   0.000e+00
Sphalerite       -0.58   -12.61    -12.03    2.900e-03           0  -2.900e-03
Spinel          -15.75    28.27     44.02    0.000e+00           0   0.000e+00
Spinel-Co       -55.83   -60.30     -4.47    0.000e+00           0   0.000e+00
Spodumene        -4.56     3.70      8.26    0.000e+00           0   0.000e+00
Stilbite         -6.40    -4.58      1.82    0.000e+00           0   0.000e+00
Strengite       -18.30   -29.10    -10.80    0.000e+00           0   0.000e+00
Sylvite          -8.04    -7.50      0.54    0.000e+00           0   0.000e+00
Talc             -1.09    22.11     23.20    0.000e+00           0   0.000e+00
Tarapacaite     -55.38   -56.12     -0.74    0.000e+00           0   0.000e+00
Tenorite        -21.84   -13.14      8.70    0.000e+00           0   0.000e+00
Tephroite         0.00    25.59     25.59    1.600e-02   1.600e-02  -1.978e-09
Th             -141.15    89.72    230.87    0.000e+00           0   0.000e+00
Th(NO3)4:5H2O  -455.68  -453.58      2.10    0.000e+00           0   0.000e+00
Th(SO4)2        -50.08   -69.74    -19.66    0.000e+00           0   0.000e+00
Th2S3          -107.80    -0.08    107.72    0.000e+00           0   0.000e+00
Th7S12         -325.93   -90.03    235.91    0.000e+00           0   0.000e+00
ThCl4           -83.08   -55.30     27.77    0.000e+00           0   0.000e+00
ThS2            -43.52   -29.96     13.57    0.000e+00           0   0.000e+00
Thenardite      -13.85   -14.16     -0.31    0.000e+00           0   0.000e+00
Thermonatrite    -4.45     6.95     11.41    0.000e+00           0   0.000e+00
Thorianite        0.00     3.72      3.72    1.700e-07   1.700e-07  -1.248e-22
Ti              -74.58    74.73    149.30    0.000e+00           0   0.000e+00
Ti2O3           -22.55    20.45     42.99    0.000e+00           0   0.000e+00
Ti3O5           -25.50     9.17     34.66    0.000e+00           0   0.000e+00
TiB2           -122.95   189.48    312.43    0.000e+00           0   0.000e+00
TiC             -36.70   145.12    181.82    0.000e+00           0   0.000e+00
TiCl2           -68.73     2.21     70.94    0.000e+00           0   0.000e+00
TiCl3           -73.36   -34.04     39.32    0.000e+00           0   0.000e+00
TiN             -35.53    -0.29     35.24    0.000e+00           0   0.000e+00
Titanite       -718.71     0.88    719.59    0.000e+00           0   0.000e+00
Tobermorite-11A  -14.66    55.09     69.75    0.000e+00           0   0.000e+00
Tremolite        -2.13    64.97     67.10    0.000e+00           0   0.000e+00
Trevorite        -4.49     8.75     13.24    0.000e+00           0   0.000e+00
Tridymite        -1.28    -5.69     -4.41    0.000e+00           0   0.000e+00
Troilite         -0.93    -4.65     -3.73    7.200e-01           0  -7.200e-01
U              -114.82   118.53    233.34    0.000e+00           0   0.000e+00
U2O2Cl5        -111.71   -88.47     23.24    0.000e+00           0   0.000e+00
U3S5           -124.40  -121.34      3.06    0.000e+00           0   0.000e+00
UC              -95.92   118.11    214.02    0.000e+00           0   0.000e+00
UCl3            -76.04   -61.06     14.98    0.000e+00           0   0.000e+00
[...]
   NaHSiO3         4.835e-27   4.835e-27   -26.316   -26.316     0.000     12.72
Sm(2)         0.000e+00
   Sm+2            0.000e+00   0.000e+00   -52.431   -52.431    -0.001    -16.06
Sm(3)         1.967e-17
   Sm+3            1.774e-17   1.768e-17   -16.751   -16.753    -0.001    -42.12
   SmOH+2          1.878e-18   1.875e-18   -17.726   -17.727    -0.001      4.04
   SmO+            5.831e-20   5.829e-20   -19.234   -19.234    -0.000      6.68
   SmO2H           2.036e-22   2.036e-22   -21.691   -21.691     0.000     23.20
   SmCO3+          2.317e-24   2.316e-24   -23.635   -23.635    -0.000    -23.55
   SmO2-           1.664e-24   1.663e-24   -23.779   -23.779    -0.000     20.64
   SmHCO3+2        4.174e-27   4.168e-27   -26.379   -26.380    -0.001    -13.32
   SmCl+2          2.546e-30   2.542e-30   -29.594   -29.595    -0.001    -20.14
   SmNO3+2         7.766e-40   7.755e-40   -39.110   -39.110    -0.001     -8.94
   SmCl2+          0.000e+00   0.000e+00   -43.102   -43.102    -0.000      4.34
   SmSO4+          0.000e+00   0.000e+00   -52.515   -52.515    -0.000    -16.26
   SmH2PO4+2       0.000e+00   0.000e+00   -54.268   -54.269    -0.001     -6.63
   SmCl3           0.000e+00   0.000e+00   -56.621   -56.621     0.000     31.62
   SmCl4-          0.000e+00   0.000e+00   -70.239   -70.239    -0.000     61.87
   SmCH3COO+2      0.000e+00   0.000e+00  -148.135  -148.136    -0.001      2.57
   Sm(CH3COO)2+    0.000e+00   0.000e+00  -280.392  -280.392    -0.000     52.36
   Sm(CH3COO)3     0.000e+00   0.000e+00  -413.024  -413.024     0.000    107.83
Ti            1.370e-20
   Ti(OH)4         1.370e-20   1.370e-20   -19.863   -19.863     0.000     40.56
Zn            3.213e-26
   Zn+2            3.178e-26   3.174e-26   -25.498   -25.498    -0.001    -25.48
   ZnOH+           3.482e-28   3.480e-28   -27.458   -27.458    -0.000     -5.32
   ZnCl+           3.576e-39   3.575e-39   -38.447   -38.447    -0.000    -13.93
   ZnCl2           0.000e+00   0.000e+00   -51.553   -51.553     0.000    102.03
   ZnSO4           0.000e+00   0.000e+00   -62.637   -62.637     0.000     21.72
   ZnCl3-          0.000e+00   0.000e+00   -64.984   -64.984    -0.000     16.96
   ZnCl4-2         0.000e+00   0.000e+00   -77.278   -77.278    -0.001    145.05
   ZnCH3COO+       0.000e+00   0.000e+00  -158.112  -158.112    -0.000     21.50
   Zn(CH3COO)2     0.000e+00   0.000e+00  -290.484  -290.484     0.000     73.03
   Zn(CH3COO)3-    0.000e+00   0.000e+00  -423.975  -423.975    -0.000    130.35

------------------------------Saturation indices-------------------------------

  Phase               SI** log IAP   log K(298 K,   1 atm)

  [(6)(CB)(CB)S] -122.36    -59.32   63.04  S
  [(aro)-O-(aro)]  10.06    -10.55  -20.61  O
  Afwillite       -85.79    -25.83   59.96  Ca3Si2O4(OH)6
  Akermanite      -73.06    -27.83   45.23  Ca2MgSi2O7
  Al             -135.34     14.57  149.91  Al
  Al2(SO4)3      -181.78   -162.88   18.90  Al2(SO4)3
  Alabandite     -151.07   -151.49   -0.42  MnS
  Albite          -48.85    -46.19    2.66  NaAlSi3O8
  Albite_high     -50.17    -46.19    3.98  NaAlSi3O8
  Albite_low      -48.85    -46.19    2.66  NaAlSi3O8
  Alum-K         -109.58   -114.55   -4.97  KAl(SO4)2:12H2O
  Alunite        -116.58   -117.05   -0.47  KAl3(OH)6(SO4)2
  Amesite-14A    -113.72    -38.45   75.27  Mg4Al4Si2O10(OH)8
  Analcime        -39.11    -33.05    6.06  Na.96Al.96Si2.04O6:H2O
  Andalusite      -31.82    -15.95   15.88  Al2SiO5
  Andradite       -75.83    -42.64   33.19  Ca3Fe2(SiO4)3
  Anhydrite       -48.76    -53.11   -4.35  CaSO4
  Annite          -91.96    -62.63   29.33  KFe3AlSi3O10(OH)2
  Anorthite       -55.52    -29.04   26.48  CaAl2(SiO4)2
  Anthophyllite  -185.54   -119.07   66.48  Mg7Si8O22(OH)2
  Antigorite     -1011.58   -535.94  475.63  Mg48Si34O85(OH)62
  Aragonite       -20.04    -18.07    1.97  CaCO3
  Arcanite        -64.38    -66.22   -1.84  K2SO4
  Artinite        -41.33    -21.71   19.63  Mg2CO3(OH)2:3H2O
  B              -108.82      0.73  109.56  B
  B2O3            -35.73    -30.18    5.55  B2O3
  Bassanite       -49.40    -53.11   -3.71  CaSO4:0.5H2O
  Beidellite-Ca   -56.05    -51.96    4.09  Ca.175Al2.35Si3.65O10(OH)2
  Beidellite-Fe   -55.52    -52.88    2.65  Fe.175Al2.35Si3.65O10(OH)2
  Beidellite-K    -56.75    -54.25    2.49  K.35Al2.35Si3.65O10(OH)2
  Beidellite-Mg   -55.56    -52.31    3.25  Mg.175Al2.35Si3.65O10(OH)2
  Beidellite-Na   -57.13    -53.63    3.50  Na.35Al2.35Si3.65O10(OH)2
  Berlinite       -47.99    -55.26   -7.27  AlPO4
  Bixbyite        -21.61    -22.57   -0.96  Mn2O3
  Boehmite         -8.80     -1.25    7.55  AlO2H
  Borax           -81.59    -69.55   12.04  Na2(B4O5(OH)4):8H2O
  Boric_acid      -14.93    -15.09   -0.16  B(OH)3
  Brucite         -17.92     -1.64   16.28  Mg(OH)2
  Bunsenite       -21.56     -9.10   12.46  NiO
  C               -61.48      2.67   64.15  C
  C2H4(g)        -200.95   -203.25   -2.31  C2H4
  C2H6(g)        -214.32   -217.24   -2.92  C2H6
  C3H8(g)        -309.52   -312.40   -2.87  C3H8
  Ca             -128.93     10.90  139.83  Ca
  Ca-Al_Pyroxene  -51.49    -15.59   35.90  CaAl2SiO6
  Ca3Al2O6       -114.46     -1.43  113.03  Ca3Al2O6
  Ca4Al2Fe2O10   -144.92     -4.44  140.48  Ca4Al2Fe2O10
  CaAl2O4         -49.05     -2.14   46.91  CaAl2O4
  CaAl4O7         -73.23     -4.64   68.59  CaAl4O7
  Calcite         -19.90    -18.07    1.82  CaCO3
  Celadonite      -70.37    -63.06    7.31  KMgAlSi4O10(OH)2
  CH4(g)         -117.48   -120.32   -2.84  CH4
  Chalcedony       -9.69    -13.45   -3.76  SiO2
  Chamosite      -117.75    -67.27   50.47  Fe5Al2Si3O10(OH)8
  Chloromagnesite -63.80    -41.99   21.82  MgCl2
  Chrysotile      -62.85    -31.82   31.03  Mg3Si2O5(OH)4
  Clinochlore-14A-118.09    -51.04   67.05  Mg5Al2Si3O10(OH)8
  Clinochlore-7A -121.46    -51.04   70.42  Mg5Al2Si3O10(OH)8
  Clinoptilolite-Ca-191.66   -199.17   -7.52  Ca1.7335Al3.45Fe.017Si14.533O36:10.922H2O
  Clinoptilolite-K-210.45   -221.90  -11.45  K3.467Al3.45Fe.017Si14.533O36:10.922H2O
  Clinoptilolite-Na-208.08   -215.73   -7.64  Na3.467Al3.45Fe.017Si14.533O36:10.922H2O
  Clinozoisite    -86.48    -43.38   43.10  Ca2Al3Si3O12(OH)
  CO(g)           -46.55    -49.55   -3.00  CO
  CO2(g)          -10.60    -18.43   -7.83  CO2
  Coesite         -10.23    -13.45   -3.22  SiO2
  Cordierite_anhyd-127.59    -75.52   52.07  Mg2Al4Si5O18
  Cordierite_hydr-125.10    -75.52   49.59  Mg2Al4Si5O18:H2O
  Corundum        -20.79     -2.50   18.29  Al2O3
  Cristobalite(alpha)  -9.97    -13.45   -3.48  SiO2
  Cristobalite(beta) -10.42    -13.45   -3.03  SiO2
  Cronstedtite-7A -42.76    -26.58   16.18  Fe2Fe2SiO5(OH)4
  Daphnite-14A   -119.37    -67.27   52.10  Fe5AlAlSi3O10(OH)8
  Daphnite-7A    -122.75    -67.27   55.48  Fe5AlAlSi3O10(OH)8
  Dawsonite       -28.61    -24.27    4.34  NaAlCO3(OH)2
  Diaspore         -8.39     -1.25    7.15  AlHO2
  Dicalcium_silicate -49.87    -12.74   37.13  Ca2SiO4
  Diopside        -49.07    -28.18   20.89  CaMgSi2O6
  Dolomite        -40.61    -38.14    2.47  CaMg(CO3)2
  Dolomite-dis    -42.15    -38.14    4.01  CaMg(CO3)2
  Dolomite-ord    -40.60    -38.14    2.46  CaMg(CO3)2
  Enstatite       -26.38    -15.09   11.29  MgSiO3
  Epidote         -76.59    -43.81   32.77  Ca2FeAl2Si3O12OH
  Epidote-ord     -76.58    -43.81   32.76  FeCa2Al2(OH)(SiO4)3
  Ettringite     -223.21   -160.75   62.46  Ca6Al2(SO4)3(OH)12:26H2O
  Eu             -147.18     17.94  165.12  Eu
  Eu(OH)3         -13.23      2.12   15.34  Eu(OH)3
  Eu2(SO4)3:8H2O -145.26   -156.15  -10.89  Eu2(SO4)3:8H2O
  Eu2O3(cubic)    -47.54      4.23   51.77  Eu2O3
  Eu2O3(monoclinic) -49.15      4.23   53.38  Eu2O3
  Eu3O4          -102.90    -15.88   87.02  Eu3O4
  EuCl2           -66.37    -60.46    5.91  EuCl2
  EuCl3           -78.10    -58.41   19.70  EuCl3
  EuCl3:6H2O      -63.29    -58.41    4.89  EuCl3:6H2O
  Eucryptite      -35.79    -22.23   13.56  LiAlSiO4
  EuOCl           -33.72    -18.06   15.66  EuOCl
  EuS            -184.56   -169.66   14.90  EuS
  EuSO4           -64.72    -73.57   -8.86  EuSO4
  Fayalite        -42.28    -23.22   19.06  Fe2SiO4
  Fe              -53.36      5.66   59.02  Fe
  Fe(OH)2         -18.78     -4.89   13.89  Fe(OH)2
  Fe(OH)3          -7.32     -1.68    5.64  Fe(OH)3
  Fe2(SO4)3      -166.79   -163.74    3.05  Fe2(SO4)3
  FeO             -18.41     -4.89   13.52  FeO
  Ferrite-Ca      -24.50     -3.00   21.50  CaFe2O4
  Ferrite-Dicalcium -59.45     -2.65   56.80  Ca2Fe2O5
  Ferrite-Mg      -26.02     -5.00   21.02  MgFe2O4
  Ferrite-Zn      -26.56    -14.86   11.70  ZnFe2O4
  Ferrosilite     -25.74    -18.34    7.41  FeSiO3
  FeSO4           -60.95    -58.35    2.61  FeSO4
  Forsterite      -44.54    -16.73   27.81  Mg2SiO4
  Foshagite      -104.73    -38.93   65.80  Ca4Si3O9(OH)2:0.5H2O
  Gd             -160.56     20.18  180.74  Gd
  Gehlenite       -71.46    -15.24   56.22  Ca2Al2SiO7
  Gibbsite         -8.99     -1.25    7.74  Al(OH)3
  Goethite         -2.21     -1.68    0.53  FeOOH
  Greenalite      -64.14    -41.56   22.58  Fe3Si2O5(OH)4
  Grossular       -93.55    -41.78   51.78  Ca3Al2(SiO4)3
  Gypsum          -48.57    -53.11   -4.53  CaSO4:2H2O
  Gyrolite        -62.44    -39.64   22.80  Ca2Si3O7(OH)2:1.5H2O
  H2(g)           -32.45    -35.55   -3.10  H2
  H2O(g)           -1.59     -0.00    1.59  H2O
  H2S(g)         -141.56   -149.55   -7.99  H2S
  Halite          -26.33    -24.77    1.56  NaCl
  Hatrurite       -85.74    -12.38   73.35  Ca3SiO5
  Hausmannite     -34.65    -24.51   10.14  Mn3O4
  Heazlewoodite  -344.03   -315.85   28.18  Ni3S2
  Hedenbergite    -50.96    -31.43   19.53  CaFe(SiO3)2
  Hematite         -3.44     -3.36    0.08  Fe2O3
  Hercynite       -36.19     -7.38   28.80  FeAl2O4
  Hillebrandite   -49.51    -12.74   36.77  Ca2SiO3(OH)2:0.17H2O
  Huntite         -88.49    -78.27   10.22  CaMg3(CO3)4
  Hydromagnesite -112.64    -81.90   30.74  Mg5(CO3)4(OH)2:4H2O
  Hydrophilite    -51.74    -39.99   11.75  CaCl2
  Hydroxyapatite -157.04   -160.26   -3.22  Ca5(OH)(PO4)3
  Ice              -0.14     -0.00    0.14  H2O
  Ilmenite        -25.65    -24.75    0.90  FeTiO3
  Jadeite         -41.05    -32.74    8.31  NaAl(SiO3)2
  Jarosite       -108.93   -118.34   -9.41  KFe3(SO4)2(OH)6
  K               -72.08     -1.10   70.98  K
  K-Feldspar      -47.59    -47.97   -0.38  KAlSi3O8
  K2O             -96.79    -12.76   84.04  K2O
  KAl(SO4)2      -117.82   -114.55    3.27  KAl(SO4)2
  Kalsilite       -31.93    -21.08   10.85  KAlSiO4
  Kaolinite       -36.11    -29.39    6.72  Al2Si2O5(OH)4
  KerogenC128    -9292.05   1441.4210733.47  C128H68O7
  KerogenC292    -22787.72   4030.9326818.66  C292H288O12
  KerogenC515    -41061.53   7037.5348099.07  C515H596O72
  Kyanite         -31.55    -15.95   15.61  Al2SiO5
  Larnite         -51.16    -12.74   38.42  Ca2SiO4
  Laumontite      -69.45    -55.94   13.51  CaAl2Si4O12:4H2O
  Lawrencite      -54.29    -45.23    9.05  FeCl2
  Lawsonite       -51.15    -29.04   22.11  CaAl2Si2O7(OH)2:H2O
  Li              -75.02     -2.26   72.76  Li
  Lime            -32.21      0.36   32.57  CaO
  Lizardite       -62.38    -31.82   30.56  Mg3Si2O5(OH)4
  Magnesite       -22.34    -20.07    2.27  MgCO3
  Magnetite       -18.66     -8.25   10.42  Fe3O4
  Manganosite     -19.85     -1.94   17.92  MnO
  Margarite       -72.46    -31.54   40.93  CaAl4Si2O10(OH)2
  Maximum_Microcline -47.59    -47.97   -0.38  KAlSi3O8
  Mayenite       -507.37    -13.22  494.15  Ca12Al14O33
  Melanterite     -55.95    -58.35   -2.40  FeSO4:7H2O
  Merwinite       -95.88    -27.47   68.41  MgCa3(SiO4)2
  Mesolite        -59.33    -45.84   13.49  Na.676Ca.657Al1.99Si3.01O10:2.647H2O
  Mg             -113.61      8.91  122.52  Mg
  MgOHCl          -37.70    -21.81   15.89  MgOHCl
  MgSO4           -59.93    -55.10    4.83  MgSO4
  Millerite      -150.59   -158.65   -8.06  NiS
  Minnesotaite    -82.29    -68.45   13.83  Fe3Si4O10(OH)2
  Mirabilite      -61.50    -62.66   -1.15  Na2SO4:10H2O
  Mn              -74.32      8.61   82.93  Mn
  Mn(OH)2(am)     -17.24     -1.94   15.31  Mn(OH)2
  MnCl2:2H2O      -46.28    -42.28    4.00  MnCl2:2H2O
  MnCl2:4H2O      -45.04    -42.28    2.75  MnCl2:4H2O
  MnCl2:H2O       -47.83    -42.28    5.54  MnCl2:H2O
  MnSO4           -58.01    -55.40    2.61  MnSO4
  Mo             -130.23    -20.95  109.27  Mo
  Molysite        -75.67    -62.20   13.47  FeCl3
  Monohydrocalcite -20.75    -18.07    2.68  CaCO3:H2O
  Monticellite    -44.26    -14.73   29.53  CaMgSiO4
  Montmor-Ca      -58.53    -56.37    2.16  Ca.175Mg.35Al1.65Si4O10(OH)2
  Montmor-K       -59.80    -58.66    1.14  K.35Mg.35Al1.65Si4O10(OH)2
  Montmor-Mg      -58.23    -56.72    1.51  Mg.525Al1.65Si4O10(OH)2
  Montmor-Na      -60.27    -58.04    2.23  Na.35Mg.35Al1.65Si4O10(OH)2
  Mordenite       -65.42    -70.78   -5.36  Ca.2895Na.361Al.94Si5.06O12:3.468H2O
  Morenosite      -60.50    -62.56   -2.06  NiSO4:7H2O
  Muscovite       -63.92    -50.47   13.45  KAl3Si3O10(OH)2
  N2(g)           -12.13    -15.30   -3.18  N2
  Na              -66.69      0.68   67.37  Na
  Na2CO3          -38.78    -27.62   11.16  Na2CO3
  Na2CO3:7H2O     -37.56    -27.62    9.94  Na2CO3:7H2O
  Na2O            -76.61     -9.20   67.42  Na2O
  Na2SiO3         -44.85    -22.64   22.20  Na2SiO3
  NaFeO2          -26.16     -6.28   19.88  NaFeO2
  Nahcolite       -22.88    -23.02   -0.14  NaHCO3
  Natrolite       -70.43    -52.04   18.39  Na2Al2Si3O10:2H2O
  Natron          -37.21    -27.62    9.59  Na2CO3:10H2O
  Natrosilite     -54.16    -36.09   18.07  Na2Si2O5
  Nepheline       -33.05    -19.29   13.75  NaAlSiO4
  Nesquehonite    -25.35    -20.07    5.29  MgCO3:3H2O
  NH3(g)          -51.86    -50.06    1.80  NH3
  NH4-feldspar    -79.73    -82.41   -2.69  NH4AlSi3O8
  NH4-muscovite   -91.83    -84.91    6.92  NH4Al3Si3O10(OH)2
  NH4Cl           -62.23    -60.99    1.24  NH4Cl
  NH4HCO3         -59.22    -59.25   -0.03  NH4HCO3
  Ni              -49.53      1.45   50.98  Ni
  Ni(OH)2         -21.85     -9.10   12.75  Ni(OH)2
  Ni2SiO4         -45.94    -31.65   14.29  Ni2SiO4
  Nickelbischofite -52.60    -49.45    3.15  NiCl2:6H2O
  NiCl2           -58.05    -49.45    8.60  NiCl2
  NiCl2:2H2O      -53.37    -49.45    3.92  NiCl2:2H2O
  NiSO4           -67.84    -62.56    5.28  NiSO4
  NiSO4:6H2O(alpha) -60.54    -62.56   -2.02  NiSO4:6H2O
  Niter           -36.34    -36.56   -0.22  KNO3
  NO(g)           -30.33    -29.60    0.74  NO
  NO2(g)          -33.26    -24.91    8.35  NO2
  Nontronite-Ca   -43.26    -52.82   -9.56  Ca.175Fe2Al.35Si3.65H2O12
  Nontronite-K    -43.97    -55.12  -11.15  K.35Fe2Al.35Si3.65H2O12
  Nontronite-Mg   -42.77    -53.17  -10.40  Mg.175Fe2Al.35Si3.65H2O12
  Nontronite-Na   -44.36    -54.49  -10.13  Na.35Fe2Al.35Si3.65H2O12
  O2(g)           -18.21    -21.10   -2.89  O2
  Okenite         -36.86    -26.54   10.31  CaSi2O4(OH)2:H2O
  P              -159.69    -27.64  132.05  P
  Paragonite      -66.07    -48.69   17.38  NaAl3Si3O10(OH)2
  Pargasite      -196.58    -94.88  101.70  NaCa2Al3Mg4Si6O22(OH)2
  Periclase       -22.96     -1.64   21.33  MgO
  Petalite        -58.63    -62.58   -3.95  LiAlSi4O10
  Phlogopite      -90.19    -52.89   37.30  KAlMg3Si3O10(OH)2
  Polydymite     -553.86   -602.79  -48.93  Ni3S4
  Portlandite     -22.19      0.36   22.55  Ca(OH)2
  Prehnite        -74.92    -42.13   32.79  Ca2Al2Si3O10(OH)2
  Pseudowollastonite -27.06    -13.09   13.96  CaSiO3
  Pyridine       -426.58     63.90  490.48  C5H5N
  Pyrite         -255.26   -279.96  -24.70  FeS2
  Pyrolusite      -11.05    -28.71  -17.66  MnO2
  Pyrophyllite    -56.58    -56.29    0.29  Al2Si4O10(OH)2
  Pyrrhotite     -150.70   -154.44   -3.74  FeS
  Quartz           -9.42    -13.45   -4.03  SiO2
  Rankinite       -77.66    -25.83   51.82  Ca3Si2O7
  Rhodochrosite   -20.15    -20.36   -0.22  MnCO3
  Rhodonite       -25.08    -15.39    9.69  MnSiO3
  Ripidolite     -130.80    -57.53   73.27  Mg3Fe2Al2Si3O10(OH)8
  Rutile          -10.22    -19.86   -9.65  TiO2
  S              -114.99   -160.10  -45.11  S
  Sanidine_high   -48.79    -47.97    0.82  KAlSi3O8
  Saponite-Fe-Ca  -84.36    -64.12   20.24  Ca.175Fe3Al.35Si3.65O10(OH)2
  Saponite-Fe-Fe  -83.83    -65.04   18.79  Fe3.175Al.35Si3.65O10(OH)2
  Saponite-Fe-K   -85.06    -66.42   18.65  K.35Fe3Al.35Si3.65O10(OH)2
  Saponite-Fe-Mg  -83.87    -64.47   19.40  Mg.175Fe3Al.35Si3.65O10(OH)2
  Saponite-Fe-Na  -85.44    -65.79   19.64  Na.35Fe3Al.35Si3.65O10(OH)2
  Saponite-Mg-Ca  -83.40    -54.38   29.02  Ca.175Mg3Al.35Si3.65O10(OH)2
  Saponite-Mg-Fe  -82.88    -55.30   27.58  Fe.175Mg3Al.35Si3.65O10(OH)2
  Saponite-Mg-K   -84.11    -56.68   27.44  K.35Mg3Al.35Si3.65O10(OH)2
  Saponite-Mg-Mg  -82.89    -54.73   28.16  Mg3.175Al.35Si3.65O10(OH)2
  Saponite-Mg-Na  -84.50    -56.05   28.45  Na.35Mg3Al.35Si3.65O10(OH)2
  Sc             -144.99     22.25  167.24  Sc
  Scacchite       -51.03    -42.28    8.74  MnCl2
  Scolecite       -58.23    -42.49   15.75  CaAl2Si3O10:3H2O
  Sepiolite      -117.47    -87.25   30.22  Mg4Si6O15(OH)2:6H2O
  Si             -141.21      7.65  148.86  Si
  Siderite        -23.09    -23.31   -0.22  FeCO3
  Sillimanite     -32.19    -15.95   16.24  Al2SiO5
  SiO2(am)        -10.71    -13.45   -2.74  SiO2
  Sm             -161.03    -27.88  133.14  Sm
  Smectite-high-Fe-Mg -72.29    -55.02   17.27  Ca.025Na.1K.2Fe.5Fe.2Mg1.15Al1.25Si3.5H2O12
  Smectite-low-Fe-Mg -68.01    -57.11   10.89  Ca.02Na.15K.2Fe.29Fe.16Mg.9Al1.25Si3.75H2O12
  Smithsonite     -30.37    -29.93    0.44  ZnCO3
  SO2(g)          -80.59    -80.42    0.18  SO2
  Sphalerite     -149.58   -161.05  -11.47  ZnS
  Spinel          -41.74     -4.14   37.61  Al2MgO4
  Spodumene       -42.60    -35.68    6.92  LiAlSi2O6
  Stilbite        -95.55    -94.74    0.81  Ca1.019Na.136K.006Al2.18Si6.82O18:7.33H2O
  Strengite       -44.30    -55.69  -11.39  FePO4:2H2O
  Sylvite         -27.38    -26.55    0.83  KCl
  Talc            -79.70    -58.71   20.99  Mg3Si4O10(OH)2
  Tephroite       -40.35    -17.32   23.02  Mn2SiO4
  Thenardite      -62.30    -62.66   -0.36  Na2SO4
  Thermonatrite   -38.56    -27.62   10.94  Na2CO3:H2O
  Ti             -148.06      1.23  149.30  Ti
  Ti2O3           -72.16    -29.18   42.99  Ti2O3
  Ti3O5           -83.70    -49.04   34.66  Ti3O5
  TiB2           -309.72      2.70  312.42  TiB2
  TiC            -177.91      3.90  181.81  TiC
  TiCl2          -120.60    -49.66   70.94  TiCl2
  TiCl3          -114.42    -75.11   39.31  TiCl3
  TiN             -99.88    -64.65   35.23  TiN
  Titanite       -752.54    -32.96  719.58  CaTiSiO5
  Tobermorite-11A-144.31    -78.92   65.39  Ca5Si6H11O22.5
  Tremolite      -176.01   -115.08   60.93  Ca2Mg5Si8O22(OH)2
  Trevorite       -22.24    -12.46    9.78  NiFe2O4
  Tridymite        -9.61    -13.45   -3.84  SiO2
  Troilite       -150.59   -154.44   -3.84  FeS
  Vaesite        -257.40   -284.18  -26.77  NiS2
  Wairakite       -73.85    -55.94   17.92  CaAl2Si4O10(OH)4
  Wollastonite    -26.82    -13.09   13.72  CaSiO3
  Wurtzite       -151.88   -161.05   -9.17  ZnS
  Wustite         -16.69     -4.29   12.40  Fe.947O
  Xonotlite      -170.30    -78.56   91.74  Ca6Si6O17(OH)2
  Zincite         -22.70    -11.50   11.20  ZnO
  Zn              -69.74     -0.95   68.79  Zn
  Zn(NO3)2:6H2O   -75.27    -71.87    3.40  Zn(NO3)2:6H2O
  Zn(OH)2(beta)   -23.43    -11.50   11.93  Zn(OH)2
  Zn(OH)2(epsilon) -23.16    -11.50   11.66  Zn(OH)2
  Zn2SiO4         -50.29    -36.45   13.84  Zn2SiO4
  ZnCl2           -58.92    -51.85    7.08  ZnCl2
  ZnSO4           -68.49    -64.96    3.53  ZnSO4
  ZnSO4:6H2O      -63.26    -64.96   -1.70  ZnSO4:6H2O
  Zoisite         -86.52    -43.38   43.14  Ca2Al3(SiO4)3OH

**For a gas, SI = log10(fugacity). Fugacity = pressure * phi / 1 atm.
  For ideal gases, phi = 1.

ERROR: Numerical method failed on all combinations of convergence parameters, cell/soln/mix 3
Stopping.
